RemoveSubsets:
---------------
Input file:                                  /Users/joachim/repos/neosim/mopsPresentation/samplerun/trackletsPurified/51029.tracklets.purified
Output file:                                 /Users/joachim/repos/neosim/mopsPresentation/samplerun/trackletsFinal/51029.tracklets.final
RemoveSubsets:                               false
Short-circuit if possible:                   true
Sort sets by size before set intersection:   false
Keep only longest tracklet(s) per detection: false
Reading infile, starting at Tue Jan 12 15:13:27 2016

Finished reading infile at Tue Jan 12 15:13:27 2016

Reading input took 0.0000000000 seconds.
Finished filtering, writing output starting at Tue Jan 12 15:13:27 2016

Completed after 0.0000000000 seconds.
Finished successfully finished at Tue Jan 12 15:13:27 2016

This process (13914) memory usage: 
------------------------------------------
------------------------------------------

RemoveSubsets:
---------------
Input file:                                  /Users/joachim/repos/neosim/mopsPresentation/samplerun/trackletsPurified/51030.tracklets.purified
Output file:                                 /Users/joachim/repos/neosim/mopsPresentation/samplerun/trackletsFinal/51030.tracklets.final
RemoveSubsets:                               false
Short-circuit if possible:                   true
Sort sets by size before set intersection:   false
Keep only longest tracklet(s) per detection: false
Reading infile, starting at Tue Jan 12 15:13:27 2016

Finished reading infile at Tue Jan 12 15:13:27 2016

Reading input took 0.0000000000 seconds.
Finished filtering, writing output starting at Tue Jan 12 15:13:27 2016

Completed after 0.0000000000 seconds.
Finished successfully finished at Tue Jan 12 15:13:27 2016

This process (13916) memory usage: 
------------------------------------------
------------------------------------------

RemoveSubsets:
---------------
Input file:                                  /Users/joachim/repos/neosim/mopsPresentation/samplerun/trackletsPurified/51031.tracklets.purified
Output file:                                 /Users/joachim/repos/neosim/mopsPresentation/samplerun/trackletsFinal/51031.tracklets.final
RemoveSubsets:                               false
Short-circuit if possible:                   true
Sort sets by size before set intersection:   false
Keep only longest tracklet(s) per detection: false
Reading infile, starting at Tue Jan 12 15:13:27 2016

Finished reading infile at Tue Jan 12 15:13:27 2016

Reading input took 0.0000000000 seconds.
Finished filtering, writing output starting at Tue Jan 12 15:13:27 2016

Completed after 0.0000000000 seconds.
Finished successfully finished at Tue Jan 12 15:13:27 2016

This process (13918) memory usage: 
------------------------------------------
------------------------------------------

RemoveSubsets:
---------------
Input file:                                  /Users/joachim/repos/neosim/mopsPresentation/samplerun/trackletsPurified/51032.tracklets.purified
Output file:                                 /Users/joachim/repos/neosim/mopsPresentation/samplerun/trackletsFinal/51032.tracklets.final
RemoveSubsets:                               false
Short-circuit if possible:                   true
Sort sets by size before set intersection:   false
Keep only longest tracklet(s) per detection: false
Reading infile, starting at Tue Jan 12 15:13:27 2016

Finished reading infile at Tue Jan 12 15:13:27 2016

Reading input took 0.0000000000 seconds.
Finished filtering, writing output starting at Tue Jan 12 15:13:27 2016

Completed after 0.0000000000 seconds.
Finished successfully finished at Tue Jan 12 15:13:27 2016

This process (13920) memory usage: 
------------------------------------------
------------------------------------------

RemoveSubsets:
---------------
Input file:                                  /Users/joachim/repos/neosim/mopsPresentation/samplerun/trackletsPurified/51034.tracklets.purified
Output file:                                 /Users/joachim/repos/neosim/mopsPresentation/samplerun/trackletsFinal/51034.tracklets.final
RemoveSubsets:                               false
Short-circuit if possible:                   true
Sort sets by size before set intersection:   false
Keep only longest tracklet(s) per detection: false
Reading infile, starting at Tue Jan 12 15:13:27 2016

Finished reading infile at Tue Jan 12 15:13:27 2016

Reading input took 0.0000000000 seconds.
Finished filtering, writing output starting at Tue Jan 12 15:13:27 2016

Completed after 0.0000000000 seconds.
Finished successfully finished at Tue Jan 12 15:13:27 2016

This process (13922) memory usage: 
------------------------------------------
------------------------------------------

RemoveSubsets:
---------------
Input file:                                  /Users/joachim/repos/neosim/mopsPresentation/samplerun/trackletsPurified/51035.tracklets.purified
Output file:                                 /Users/joachim/repos/neosim/mopsPresentation/samplerun/trackletsFinal/51035.tracklets.final
RemoveSubsets:                               false
Short-circuit if possible:                   true
Sort sets by size before set intersection:   false
Keep only longest tracklet(s) per detection: false
Reading infile, starting at Tue Jan 12 15:13:27 2016

Finished reading infile at Tue Jan 12 15:13:27 2016

Reading input took 0.0000000000 seconds.
Finished filtering, writing output starting at Tue Jan 12 15:13:27 2016

Completed after 0.0000000000 seconds.
Finished successfully finished at Tue Jan 12 15:13:27 2016

This process (13924) memory usage: 
------------------------------------------
------------------------------------------

RemoveSubsets:
---------------
Input file:                                  /Users/joachim/repos/neosim/mopsPresentation/samplerun/trackletsPurified/51042.tracklets.purified
Output file:                                 /Users/joachim/repos/neosim/mopsPresentation/samplerun/trackletsFinal/51042.tracklets.final
RemoveSubsets:                               false
Short-circuit if possible:                   true
Sort sets by size before set intersection:   false
Keep only longest tracklet(s) per detection: false
Reading infile, starting at Tue Jan 12 15:13:27 2016

Finished reading infile at Tue Jan 12 15:13:27 2016

Reading input took 0.0000000000 seconds.
Finished filtering, writing output starting at Tue Jan 12 15:13:27 2016

Completed after 0.0000000000 seconds.
Finished successfully finished at Tue Jan 12 15:13:27 2016

This process (13926) memory usage: 
------------------------------------------
------------------------------------------

RemoveSubsets:
---------------
Input file:                                  /Users/joachim/repos/neosim/mopsPresentation/samplerun/trackletsPurified/51048.tracklets.purified
Output file:                                 /Users/joachim/repos/neosim/mopsPresentation/samplerun/trackletsFinal/51048.tracklets.final
RemoveSubsets:                               false
Short-circuit if possible:                   true
Sort sets by size before set intersection:   false
Keep only longest tracklet(s) per detection: false
Reading infile, starting at Tue Jan 12 15:13:27 2016

Finished reading infile at Tue Jan 12 15:13:27 2016

Reading input took 0.0000000000 seconds.
Finished filtering, writing output starting at Tue Jan 12 15:13:27 2016

Completed after 0.0000000000 seconds.
Finished successfully finished at Tue Jan 12 15:13:27 2016

This process (13928) memory usage: 
------------------------------------------
------------------------------------------

