RemoveSubsets:
---------------
Input file:                                  /Users/joachim/repos/neosim/unittest/controlRun/trackletsPurified/59580.tracklets.purified
Output file:                                 /Users/joachim/repos/neosim/unittest/controlRun/trackletsFinal/59580.tracklets.final
RemoveSubsets:                               true
Short-circuit if possible:                   true
Sort sets by size before set intersection:   false
Keep only longest tracklet(s) per detection: false
Reading infile, starting at Thu Feb 11 16:41:07 2016

Finished reading infile at Thu Feb 11 16:41:07 2016

Reading input took 0.0000000000 seconds.
Building detection-to-track map, starting at Thu Feb 11 16:41:07 2016

Finished detection-to-track map, filtering tracks starting at Thu Feb 11 16:41:07 2016

Finished filtering, writing output starting at Thu Feb 11 16:41:07 2016

Completed after 0.0000000000 seconds.
Finished successfully finished at Thu Feb 11 16:41:07 2016

This process (51207) memory usage: 
------------------------------------------
------------------------------------------

RemoveSubsets:
---------------
Input file:                                  /Users/joachim/repos/neosim/unittest/controlRun/trackletsPurified/59581.tracklets.purified
Output file:                                 /Users/joachim/repos/neosim/unittest/controlRun/trackletsFinal/59581.tracklets.final
RemoveSubsets:                               true
Short-circuit if possible:                   true
Sort sets by size before set intersection:   false
Keep only longest tracklet(s) per detection: false
Reading infile, starting at Thu Feb 11 16:41:07 2016

Finished reading infile at Thu Feb 11 16:41:07 2016

Reading input took 0.0000000000 seconds.
Building detection-to-track map, starting at Thu Feb 11 16:41:07 2016

Finished detection-to-track map, filtering tracks starting at Thu Feb 11 16:41:07 2016

Finished filtering, writing output starting at Thu Feb 11 16:41:07 2016

Completed after 0.0000000000 seconds.
Finished successfully finished at Thu Feb 11 16:41:07 2016

This process (51209) memory usage: 
------------------------------------------
------------------------------------------

RemoveSubsets:
---------------
Input file:                                  /Users/joachim/repos/neosim/unittest/controlRun/trackletsPurified/59582.tracklets.purified
Output file:                                 /Users/joachim/repos/neosim/unittest/controlRun/trackletsFinal/59582.tracklets.final
RemoveSubsets:                               true
Short-circuit if possible:                   true
Sort sets by size before set intersection:   false
Keep only longest tracklet(s) per detection: false
Reading infile, starting at Thu Feb 11 16:41:07 2016

Finished reading infile at Thu Feb 11 16:41:07 2016

Reading input took 0.0000000000 seconds.
Building detection-to-track map, starting at Thu Feb 11 16:41:07 2016

Finished detection-to-track map, filtering tracks starting at Thu Feb 11 16:41:07 2016

Finished filtering, writing output starting at Thu Feb 11 16:41:07 2016

Completed after 0.0000000000 seconds.
Finished successfully finished at Thu Feb 11 16:41:07 2016

This process (51211) memory usage: 
------------------------------------------
------------------------------------------

RemoveSubsets:
---------------
Input file:                                  /Users/joachim/repos/neosim/unittest/controlRun/trackletsPurified/59583.tracklets.purified
Output file:                                 /Users/joachim/repos/neosim/unittest/controlRun/trackletsFinal/59583.tracklets.final
RemoveSubsets:                               true
Short-circuit if possible:                   true
Sort sets by size before set intersection:   false
Keep only longest tracklet(s) per detection: false
Reading infile, starting at Thu Feb 11 16:41:07 2016

Finished reading infile at Thu Feb 11 16:41:07 2016

Reading input took 0.0000000000 seconds.
Building detection-to-track map, starting at Thu Feb 11 16:41:07 2016

Finished detection-to-track map, filtering tracks starting at Thu Feb 11 16:41:07 2016

Finished filtering, writing output starting at Thu Feb 11 16:41:07 2016

Completed after 0.0000000000 seconds.
Finished successfully finished at Thu Feb 11 16:41:07 2016

This process (51213) memory usage: 
------------------------------------------
------------------------------------------

RemoveSubsets:
---------------
Input file:                                  /Users/joachim/repos/neosim/unittest/controlRun/trackletsPurified/59584.tracklets.purified
Output file:                                 /Users/joachim/repos/neosim/unittest/controlRun/trackletsFinal/59584.tracklets.final
RemoveSubsets:                               true
Short-circuit if possible:                   true
Sort sets by size before set intersection:   false
Keep only longest tracklet(s) per detection: false
Reading infile, starting at Thu Feb 11 16:41:07 2016

Finished reading infile at Thu Feb 11 16:41:07 2016

Reading input took 0.0000000000 seconds.
Building detection-to-track map, starting at Thu Feb 11 16:41:07 2016

Finished detection-to-track map, filtering tracks starting at Thu Feb 11 16:41:07 2016

Finished filtering, writing output starting at Thu Feb 11 16:41:07 2016

Completed after 0.0000000000 seconds.
Finished successfully finished at Thu Feb 11 16:41:07 2016

This process (51215) memory usage: 
------------------------------------------
------------------------------------------

RemoveSubsets:
---------------
Input file:                                  /Users/joachim/repos/neosim/unittest/controlRun/trackletsPurified/59585.tracklets.purified
Output file:                                 /Users/joachim/repos/neosim/unittest/controlRun/trackletsFinal/59585.tracklets.final
RemoveSubsets:                               true
Short-circuit if possible:                   true
Sort sets by size before set intersection:   false
Keep only longest tracklet(s) per detection: false
Reading infile, starting at Thu Feb 11 16:41:07 2016

Finished reading infile at Thu Feb 11 16:41:07 2016

Reading input took 0.0000000000 seconds.
Building detection-to-track map, starting at Thu Feb 11 16:41:07 2016

Finished detection-to-track map, filtering tracks starting at Thu Feb 11 16:41:07 2016

Finished filtering, writing output starting at Thu Feb 11 16:41:07 2016

Completed after 0.0000000000 seconds.
Finished successfully finished at Thu Feb 11 16:41:07 2016

This process (51217) memory usage: 
------------------------------------------
------------------------------------------

RemoveSubsets:
---------------
Input file:                                  /Users/joachim/repos/neosim/unittest/controlRun/trackletsPurified/59586.tracklets.purified
Output file:                                 /Users/joachim/repos/neosim/unittest/controlRun/trackletsFinal/59586.tracklets.final
RemoveSubsets:                               true
Short-circuit if possible:                   true
Sort sets by size before set intersection:   false
Keep only longest tracklet(s) per detection: false
Reading infile, starting at Thu Feb 11 16:41:07 2016

Finished reading infile at Thu Feb 11 16:41:07 2016

Reading input took 0.0000000000 seconds.
Building detection-to-track map, starting at Thu Feb 11 16:41:07 2016

Finished detection-to-track map, filtering tracks starting at Thu Feb 11 16:41:07 2016

Finished filtering, writing output starting at Thu Feb 11 16:41:07 2016

Completed after 0.0000000000 seconds.
Finished successfully finished at Thu Feb 11 16:41:07 2016

This process (51219) memory usage: 
------------------------------------------
------------------------------------------

RemoveSubsets:
---------------
Input file:                                  /Users/joachim/repos/neosim/unittest/controlRun/trackletsPurified/59587.tracklets.purified
Output file:                                 /Users/joachim/repos/neosim/unittest/controlRun/trackletsFinal/59587.tracklets.final
RemoveSubsets:                               true
Short-circuit if possible:                   true
Sort sets by size before set intersection:   false
Keep only longest tracklet(s) per detection: false
Reading infile, starting at Thu Feb 11 16:41:07 2016

Finished reading infile at Thu Feb 11 16:41:07 2016

Reading input took 0.0000000000 seconds.
Building detection-to-track map, starting at Thu Feb 11 16:41:07 2016

Finished detection-to-track map, filtering tracks starting at Thu Feb 11 16:41:07 2016

Finished filtering, writing output starting at Thu Feb 11 16:41:07 2016

Completed after 0.0000000000 seconds.
Finished successfully finished at Thu Feb 11 16:41:07 2016

This process (51221) memory usage: 
------------------------------------------
------------------------------------------

RemoveSubsets:
---------------
Input file:                                  /Users/joachim/repos/neosim/unittest/controlRun/trackletsPurified/59588.tracklets.purified
Output file:                                 /Users/joachim/repos/neosim/unittest/controlRun/trackletsFinal/59588.tracklets.final
RemoveSubsets:                               true
Short-circuit if possible:                   true
Sort sets by size before set intersection:   false
Keep only longest tracklet(s) per detection: false
Reading infile, starting at Thu Feb 11 16:41:07 2016

Finished reading infile at Thu Feb 11 16:41:07 2016

Reading input took 0.0000000000 seconds.
Building detection-to-track map, starting at Thu Feb 11 16:41:07 2016

Finished detection-to-track map, filtering tracks starting at Thu Feb 11 16:41:07 2016

Finished filtering, writing output starting at Thu Feb 11 16:41:07 2016

Completed after 0.0000000000 seconds.
Finished successfully finished at Thu Feb 11 16:41:07 2016

This process (51223) memory usage: 
------------------------------------------
------------------------------------------

RemoveSubsets:
---------------
Input file:                                  /Users/joachim/repos/neosim/unittest/controlRun/trackletsPurified/59589.tracklets.purified
Output file:                                 /Users/joachim/repos/neosim/unittest/controlRun/trackletsFinal/59589.tracklets.final
RemoveSubsets:                               true
Short-circuit if possible:                   true
Sort sets by size before set intersection:   false
Keep only longest tracklet(s) per detection: false
Reading infile, starting at Thu Feb 11 16:41:07 2016

Finished reading infile at Thu Feb 11 16:41:07 2016

Reading input took 0.0000000000 seconds.
Building detection-to-track map, starting at Thu Feb 11 16:41:07 2016

Finished detection-to-track map, filtering tracks starting at Thu Feb 11 16:41:07 2016

Finished filtering, writing output starting at Thu Feb 11 16:41:07 2016

Completed after 0.0000000000 seconds.
Finished successfully finished at Thu Feb 11 16:41:07 2016

This process (51225) memory usage: 
------------------------------------------
------------------------------------------

RemoveSubsets:
---------------
Input file:                                  /Users/joachim/repos/neosim/unittest/controlRun/trackletsPurified/59590.tracklets.purified
Output file:                                 /Users/joachim/repos/neosim/unittest/controlRun/trackletsFinal/59590.tracklets.final
RemoveSubsets:                               true
Short-circuit if possible:                   true
Sort sets by size before set intersection:   false
Keep only longest tracklet(s) per detection: false
Reading infile, starting at Thu Feb 11 16:41:07 2016

Finished reading infile at Thu Feb 11 16:41:07 2016

Reading input took 0.0000000000 seconds.
Building detection-to-track map, starting at Thu Feb 11 16:41:07 2016

Finished detection-to-track map, filtering tracks starting at Thu Feb 11 16:41:07 2016

Finished filtering, writing output starting at Thu Feb 11 16:41:07 2016

Completed after 0.0000000000 seconds.
Finished successfully finished at Thu Feb 11 16:41:07 2016

This process (51227) memory usage: 
------------------------------------------
------------------------------------------

RemoveSubsets:
---------------
Input file:                                  /Users/joachim/repos/neosim/unittest/controlRun/trackletsPurified/59591.tracklets.purified
Output file:                                 /Users/joachim/repos/neosim/unittest/controlRun/trackletsFinal/59591.tracklets.final
RemoveSubsets:                               true
Short-circuit if possible:                   true
Sort sets by size before set intersection:   false
Keep only longest tracklet(s) per detection: false
Reading infile, starting at Thu Feb 11 16:41:07 2016

Finished reading infile at Thu Feb 11 16:41:07 2016

Reading input took 0.0000000000 seconds.
Building detection-to-track map, starting at Thu Feb 11 16:41:07 2016

Finished detection-to-track map, filtering tracks starting at Thu Feb 11 16:41:07 2016

Finished filtering, writing output starting at Thu Feb 11 16:41:07 2016

Completed after 0.0000000000 seconds.
Finished successfully finished at Thu Feb 11 16:41:07 2016

This process (51229) memory usage: 
------------------------------------------
------------------------------------------

RemoveSubsets:
---------------
Input file:                                  /Users/joachim/repos/neosim/unittest/controlRun/trackletsPurified/59592.tracklets.purified
Output file:                                 /Users/joachim/repos/neosim/unittest/controlRun/trackletsFinal/59592.tracklets.final
RemoveSubsets:                               true
Short-circuit if possible:                   true
Sort sets by size before set intersection:   false
Keep only longest tracklet(s) per detection: false
Reading infile, starting at Thu Feb 11 16:41:07 2016

Finished reading infile at Thu Feb 11 16:41:07 2016

Reading input took 0.0000000000 seconds.
Building detection-to-track map, starting at Thu Feb 11 16:41:07 2016

Finished detection-to-track map, filtering tracks starting at Thu Feb 11 16:41:07 2016

Finished filtering, writing output starting at Thu Feb 11 16:41:07 2016

Completed after 0.0000000000 seconds.
Finished successfully finished at Thu Feb 11 16:41:07 2016

This process (51231) memory usage: 
------------------------------------------
------------------------------------------

RemoveSubsets:
---------------
Input file:                                  /Users/joachim/repos/neosim/unittest/controlRun/trackletsPurified/59593.tracklets.purified
Output file:                                 /Users/joachim/repos/neosim/unittest/controlRun/trackletsFinal/59593.tracklets.final
RemoveSubsets:                               true
Short-circuit if possible:                   true
Sort sets by size before set intersection:   false
Keep only longest tracklet(s) per detection: false
Reading infile, starting at Thu Feb 11 16:41:07 2016

Finished reading infile at Thu Feb 11 16:41:07 2016

Reading input took 0.0000000000 seconds.
Building detection-to-track map, starting at Thu Feb 11 16:41:07 2016

Finished detection-to-track map, filtering tracks starting at Thu Feb 11 16:41:07 2016

Finished filtering, writing output starting at Thu Feb 11 16:41:07 2016

Completed after 0.0000000000 seconds.
Finished successfully finished at Thu Feb 11 16:41:07 2016

This process (51233) memory usage: 
------------------------------------------
------------------------------------------

RemoveSubsets:
---------------
Input file:                                  /Users/joachim/repos/neosim/unittest/controlRun/trackletsPurified/59594.tracklets.purified
Output file:                                 /Users/joachim/repos/neosim/unittest/controlRun/trackletsFinal/59594.tracklets.final
RemoveSubsets:                               true
Short-circuit if possible:                   true
Sort sets by size before set intersection:   false
Keep only longest tracklet(s) per detection: false
Reading infile, starting at Thu Feb 11 16:41:07 2016

Finished reading infile at Thu Feb 11 16:41:07 2016

Reading input took 0.0000000000 seconds.
Building detection-to-track map, starting at Thu Feb 11 16:41:07 2016

Finished detection-to-track map, filtering tracks starting at Thu Feb 11 16:41:07 2016

Finished filtering, writing output starting at Thu Feb 11 16:41:07 2016

Completed after 0.0000000000 seconds.
Finished successfully finished at Thu Feb 11 16:41:07 2016

This process (51235) memory usage: 
------------------------------------------
------------------------------------------

RemoveSubsets:
---------------
Input file:                                  /Users/joachim/repos/neosim/unittest/controlRun/trackletsPurified/59595.tracklets.purified
Output file:                                 /Users/joachim/repos/neosim/unittest/controlRun/trackletsFinal/59595.tracklets.final
RemoveSubsets:                               true
Short-circuit if possible:                   true
Sort sets by size before set intersection:   false
Keep only longest tracklet(s) per detection: false
Reading infile, starting at Thu Feb 11 16:41:07 2016

Finished reading infile at Thu Feb 11 16:41:07 2016

Reading input took 0.0000000000 seconds.
Building detection-to-track map, starting at Thu Feb 11 16:41:07 2016

Finished detection-to-track map, filtering tracks starting at Thu Feb 11 16:41:07 2016

Finished filtering, writing output starting at Thu Feb 11 16:41:07 2016

Completed after 0.0000000000 seconds.
Finished successfully finished at Thu Feb 11 16:41:07 2016

This process (51237) memory usage: 
------------------------------------------
------------------------------------------

RemoveSubsets:
---------------
Input file:                                  /Users/joachim/repos/neosim/unittest/controlRun/trackletsPurified/59596.tracklets.purified
Output file:                                 /Users/joachim/repos/neosim/unittest/controlRun/trackletsFinal/59596.tracklets.final
RemoveSubsets:                               true
Short-circuit if possible:                   true
Sort sets by size before set intersection:   false
Keep only longest tracklet(s) per detection: false
Reading infile, starting at Thu Feb 11 16:41:07 2016

Finished reading infile at Thu Feb 11 16:41:07 2016

Reading input took 0.0000000000 seconds.
Building detection-to-track map, starting at Thu Feb 11 16:41:07 2016

Finished detection-to-track map, filtering tracks starting at Thu Feb 11 16:41:07 2016

Finished filtering, writing output starting at Thu Feb 11 16:41:07 2016

Completed after 0.0000000000 seconds.
Finished successfully finished at Thu Feb 11 16:41:07 2016

This process (51239) memory usage: 
------------------------------------------
------------------------------------------

RemoveSubsets:
---------------
Input file:                                  /Users/joachim/repos/neosim/unittest/controlRun/trackletsPurified/59597.tracklets.purified
Output file:                                 /Users/joachim/repos/neosim/unittest/controlRun/trackletsFinal/59597.tracklets.final
RemoveSubsets:                               true
Short-circuit if possible:                   true
Sort sets by size before set intersection:   false
Keep only longest tracklet(s) per detection: false
Reading infile, starting at Thu Feb 11 16:41:07 2016

Finished reading infile at Thu Feb 11 16:41:07 2016

Reading input took 0.0000000000 seconds.
Building detection-to-track map, starting at Thu Feb 11 16:41:07 2016

Finished detection-to-track map, filtering tracks starting at Thu Feb 11 16:41:07 2016

Finished filtering, writing output starting at Thu Feb 11 16:41:07 2016

Completed after 0.0000000000 seconds.
Finished successfully finished at Thu Feb 11 16:41:07 2016

This process (51241) memory usage: 
------------------------------------------
------------------------------------------

RemoveSubsets:
---------------
Input file:                                  /Users/joachim/repos/neosim/unittest/controlRun/trackletsPurified/59598.tracklets.purified
Output file:                                 /Users/joachim/repos/neosim/unittest/controlRun/trackletsFinal/59598.tracklets.final
RemoveSubsets:                               true
Short-circuit if possible:                   true
Sort sets by size before set intersection:   false
Keep only longest tracklet(s) per detection: false
Reading infile, starting at Thu Feb 11 16:41:07 2016

Finished reading infile at Thu Feb 11 16:41:07 2016

Reading input took 0.0000000000 seconds.
Building detection-to-track map, starting at Thu Feb 11 16:41:07 2016

Finished detection-to-track map, filtering tracks starting at Thu Feb 11 16:41:07 2016

Finished filtering, writing output starting at Thu Feb 11 16:41:07 2016

Completed after 0.0000000000 seconds.
Finished successfully finished at Thu Feb 11 16:41:07 2016

This process (51243) memory usage: 
------------------------------------------
------------------------------------------

RemoveSubsets:
---------------
Input file:                                  /Users/joachim/repos/neosim/unittest/controlRun/trackletsPurified/59599.tracklets.purified
Output file:                                 /Users/joachim/repos/neosim/unittest/controlRun/trackletsFinal/59599.tracklets.final
RemoveSubsets:                               true
Short-circuit if possible:                   true
Sort sets by size before set intersection:   false
Keep only longest tracklet(s) per detection: false
Reading infile, starting at Thu Feb 11 16:41:07 2016

Finished reading infile at Thu Feb 11 16:41:07 2016

Reading input took 0.0000000000 seconds.
Building detection-to-track map, starting at Thu Feb 11 16:41:07 2016

Finished detection-to-track map, filtering tracks starting at Thu Feb 11 16:41:07 2016

Finished filtering, writing output starting at Thu Feb 11 16:41:07 2016

Completed after 0.0000000000 seconds.
Finished successfully finished at Thu Feb 11 16:41:07 2016

This process (51245) memory usage: 
------------------------------------------
------------------------------------------

RemoveSubsets:
---------------
Input file:                                  /Users/joachim/repos/neosim/unittest/controlRun/trackletsPurified/59600.tracklets.purified
Output file:                                 /Users/joachim/repos/neosim/unittest/controlRun/trackletsFinal/59600.tracklets.final
RemoveSubsets:                               true
Short-circuit if possible:                   true
Sort sets by size before set intersection:   false
Keep only longest tracklet(s) per detection: false
Reading infile, starting at Thu Feb 11 16:41:07 2016

Finished reading infile at Thu Feb 11 16:41:07 2016

Reading input took 0.0000000000 seconds.
Building detection-to-track map, starting at Thu Feb 11 16:41:07 2016

Finished detection-to-track map, filtering tracks starting at Thu Feb 11 16:41:07 2016

Finished filtering, writing output starting at Thu Feb 11 16:41:07 2016

Completed after 0.0000000000 seconds.
Finished successfully finished at Thu Feb 11 16:41:07 2016

This process (51247) memory usage: 
------------------------------------------
------------------------------------------

RemoveSubsets:
---------------
Input file:                                  /Users/joachim/repos/neosim/unittest/controlRun/trackletsPurified/59601.tracklets.purified
Output file:                                 /Users/joachim/repos/neosim/unittest/controlRun/trackletsFinal/59601.tracklets.final
RemoveSubsets:                               true
Short-circuit if possible:                   true
Sort sets by size before set intersection:   false
Keep only longest tracklet(s) per detection: false
Reading infile, starting at Thu Feb 11 16:41:07 2016

Finished reading infile at Thu Feb 11 16:41:07 2016

Reading input took 0.0000000000 seconds.
Building detection-to-track map, starting at Thu Feb 11 16:41:07 2016

Finished detection-to-track map, filtering tracks starting at Thu Feb 11 16:41:07 2016

Finished filtering, writing output starting at Thu Feb 11 16:41:07 2016

Completed after 0.0000000000 seconds.
Finished successfully finished at Thu Feb 11 16:41:07 2016

This process (51249) memory usage: 
------------------------------------------
------------------------------------------

RemoveSubsets:
---------------
Input file:                                  /Users/joachim/repos/neosim/unittest/controlRun/trackletsPurified/59602.tracklets.purified
Output file:                                 /Users/joachim/repos/neosim/unittest/controlRun/trackletsFinal/59602.tracklets.final
RemoveSubsets:                               true
Short-circuit if possible:                   true
Sort sets by size before set intersection:   false
Keep only longest tracklet(s) per detection: false
Reading infile, starting at Thu Feb 11 16:41:07 2016

Finished reading infile at Thu Feb 11 16:41:07 2016

Reading input took 0.0000000000 seconds.
Building detection-to-track map, starting at Thu Feb 11 16:41:07 2016

Finished detection-to-track map, filtering tracks starting at Thu Feb 11 16:41:07 2016

Finished filtering, writing output starting at Thu Feb 11 16:41:07 2016

Completed after 0.0000000000 seconds.
Finished successfully finished at Thu Feb 11 16:41:07 2016

This process (51251) memory usage: 
------------------------------------------
------------------------------------------

RemoveSubsets:
---------------
Input file:                                  /Users/joachim/repos/neosim/unittest/controlRun/trackletsPurified/59603.tracklets.purified
Output file:                                 /Users/joachim/repos/neosim/unittest/controlRun/trackletsFinal/59603.tracklets.final
RemoveSubsets:                               true
Short-circuit if possible:                   true
Sort sets by size before set intersection:   false
Keep only longest tracklet(s) per detection: false
Reading infile, starting at Thu Feb 11 16:41:07 2016

Finished reading infile at Thu Feb 11 16:41:07 2016

Reading input took 0.0000000000 seconds.
Building detection-to-track map, starting at Thu Feb 11 16:41:07 2016

Finished detection-to-track map, filtering tracks starting at Thu Feb 11 16:41:07 2016

Finished filtering, writing output starting at Thu Feb 11 16:41:07 2016

Completed after 0.0000000000 seconds.
Finished successfully finished at Thu Feb 11 16:41:07 2016

This process (51253) memory usage: 
------------------------------------------
------------------------------------------

RemoveSubsets:
---------------
Input file:                                  /Users/joachim/repos/neosim/unittest/controlRun/trackletsPurified/59604.tracklets.purified
Output file:                                 /Users/joachim/repos/neosim/unittest/controlRun/trackletsFinal/59604.tracklets.final
RemoveSubsets:                               true
Short-circuit if possible:                   true
Sort sets by size before set intersection:   false
Keep only longest tracklet(s) per detection: false
Reading infile, starting at Thu Feb 11 16:41:07 2016

Finished reading infile at Thu Feb 11 16:41:07 2016

Reading input took 0.0000000000 seconds.
Building detection-to-track map, starting at Thu Feb 11 16:41:07 2016

Finished detection-to-track map, filtering tracks starting at Thu Feb 11 16:41:07 2016

Finished filtering, writing output starting at Thu Feb 11 16:41:07 2016

Completed after 0.0000000000 seconds.
Finished successfully finished at Thu Feb 11 16:41:07 2016

This process (51255) memory usage: 
------------------------------------------
------------------------------------------

RemoveSubsets:
---------------
Input file:                                  /Users/joachim/repos/neosim/unittest/controlRun/trackletsPurified/59605.tracklets.purified
Output file:                                 /Users/joachim/repos/neosim/unittest/controlRun/trackletsFinal/59605.tracklets.final
RemoveSubsets:                               true
Short-circuit if possible:                   true
Sort sets by size before set intersection:   false
Keep only longest tracklet(s) per detection: false
Reading infile, starting at Thu Feb 11 16:41:08 2016

Finished reading infile at Thu Feb 11 16:41:08 2016

Reading input took 0.0000000000 seconds.
Building detection-to-track map, starting at Thu Feb 11 16:41:08 2016

Finished detection-to-track map, filtering tracks starting at Thu Feb 11 16:41:08 2016

Finished filtering, writing output starting at Thu Feb 11 16:41:08 2016

Completed after 0.0000000000 seconds.
Finished successfully finished at Thu Feb 11 16:41:08 2016

This process (51257) memory usage: 
------------------------------------------
------------------------------------------

RemoveSubsets:
---------------
Input file:                                  /Users/joachim/repos/neosim/unittest/controlRun/trackletsPurified/59606.tracklets.purified
Output file:                                 /Users/joachim/repos/neosim/unittest/controlRun/trackletsFinal/59606.tracklets.final
RemoveSubsets:                               true
Short-circuit if possible:                   true
Sort sets by size before set intersection:   false
Keep only longest tracklet(s) per detection: false
Reading infile, starting at Thu Feb 11 16:41:08 2016

Finished reading infile at Thu Feb 11 16:41:08 2016

Reading input took 0.0000000000 seconds.
Building detection-to-track map, starting at Thu Feb 11 16:41:08 2016

Finished detection-to-track map, filtering tracks starting at Thu Feb 11 16:41:08 2016

Finished filtering, writing output starting at Thu Feb 11 16:41:08 2016

Completed after 0.0000000000 seconds.
Finished successfully finished at Thu Feb 11 16:41:08 2016

This process (51259) memory usage: 
------------------------------------------
------------------------------------------

RemoveSubsets:
---------------
Input file:                                  /Users/joachim/repos/neosim/unittest/controlRun/trackletsPurified/59607.tracklets.purified
Output file:                                 /Users/joachim/repos/neosim/unittest/controlRun/trackletsFinal/59607.tracklets.final
RemoveSubsets:                               true
Short-circuit if possible:                   true
Sort sets by size before set intersection:   false
Keep only longest tracklet(s) per detection: false
Reading infile, starting at Thu Feb 11 16:41:08 2016

Finished reading infile at Thu Feb 11 16:41:08 2016

Reading input took 0.0000000000 seconds.
Building detection-to-track map, starting at Thu Feb 11 16:41:08 2016

Finished detection-to-track map, filtering tracks starting at Thu Feb 11 16:41:08 2016

Finished filtering, writing output starting at Thu Feb 11 16:41:08 2016

Completed after 0.0000000000 seconds.
Finished successfully finished at Thu Feb 11 16:41:08 2016

This process (51261) memory usage: 
------------------------------------------
------------------------------------------

RemoveSubsets:
---------------
Input file:                                  /Users/joachim/repos/neosim/unittest/controlRun/trackletsPurified/59608.tracklets.purified
Output file:                                 /Users/joachim/repos/neosim/unittest/controlRun/trackletsFinal/59608.tracklets.final
RemoveSubsets:                               true
Short-circuit if possible:                   true
Sort sets by size before set intersection:   false
Keep only longest tracklet(s) per detection: false
Reading infile, starting at Thu Feb 11 16:41:08 2016

Finished reading infile at Thu Feb 11 16:41:08 2016

Reading input took 0.0000000000 seconds.
Building detection-to-track map, starting at Thu Feb 11 16:41:08 2016

Finished detection-to-track map, filtering tracks starting at Thu Feb 11 16:41:08 2016

Finished filtering, writing output starting at Thu Feb 11 16:41:08 2016

Completed after 0.0000000000 seconds.
Finished successfully finished at Thu Feb 11 16:41:08 2016

This process (51263) memory usage: 
------------------------------------------
------------------------------------------

RemoveSubsets:
---------------
Input file:                                  /Users/joachim/repos/neosim/unittest/controlRun/trackletsPurified/59609.tracklets.purified
Output file:                                 /Users/joachim/repos/neosim/unittest/controlRun/trackletsFinal/59609.tracklets.final
RemoveSubsets:                               true
Short-circuit if possible:                   true
Sort sets by size before set intersection:   false
Keep only longest tracklet(s) per detection: false
Reading infile, starting at Thu Feb 11 16:41:08 2016

Finished reading infile at Thu Feb 11 16:41:08 2016

Reading input took 0.0000000000 seconds.
Building detection-to-track map, starting at Thu Feb 11 16:41:08 2016

Finished detection-to-track map, filtering tracks starting at Thu Feb 11 16:41:08 2016

Finished filtering, writing output starting at Thu Feb 11 16:41:08 2016

Completed after 0.0000000000 seconds.
Finished successfully finished at Thu Feb 11 16:41:08 2016

This process (51265) memory usage: 
------------------------------------------
------------------------------------------

