RemoveSubsets:
---------------
Input file:                                  /Users/joachim/repos/neosim/unittest/controlRun/trackletsPurified/59580.tracklets.purified
Output file:                                 /Users/joachim/repos/neosim/unittest/controlRun/trackletsFinal/59580.tracklets.final
RemoveSubsets:                               true
Short-circuit if possible:                   true
Sort sets by size before set intersection:   false
Keep only longest tracklet(s) per detection: true
Reading infile, starting at Sun Jan 10 14:48:16 2016

Finished reading infile at Sun Jan 10 14:48:16 2016

Reading input took 0.0000000000 seconds.
Building detection-to-track map, starting at Sun Jan 10 14:48:16 2016

Finished detection-to-track map, filtering tracks starting at Sun Jan 10 14:48:16 2016

Finished filtering, writing output starting at Sun Jan 10 14:48:16 2016

Completed after 0.0000000000 seconds.
Finished successfully finished at Sun Jan 10 14:48:16 2016

This process (12127) memory usage: 
------------------------------------------
------------------------------------------

RemoveSubsets:
---------------
Input file:                                  /Users/joachim/repos/neosim/unittest/controlRun/trackletsPurified/59581.tracklets.purified
Output file:                                 /Users/joachim/repos/neosim/unittest/controlRun/trackletsFinal/59581.tracklets.final
RemoveSubsets:                               true
Short-circuit if possible:                   true
Sort sets by size before set intersection:   false
Keep only longest tracklet(s) per detection: true
Reading infile, starting at Sun Jan 10 14:48:16 2016

Finished reading infile at Sun Jan 10 14:48:16 2016

Reading input took 0.0000000000 seconds.
Building detection-to-track map, starting at Sun Jan 10 14:48:16 2016

Finished detection-to-track map, filtering tracks starting at Sun Jan 10 14:48:16 2016

Finished filtering, writing output starting at Sun Jan 10 14:48:16 2016

Completed after 0.0000000000 seconds.
Finished successfully finished at Sun Jan 10 14:48:16 2016

This process (12129) memory usage: 
------------------------------------------
------------------------------------------

RemoveSubsets:
---------------
Input file:                                  /Users/joachim/repos/neosim/unittest/controlRun/trackletsPurified/59582.tracklets.purified
Output file:                                 /Users/joachim/repos/neosim/unittest/controlRun/trackletsFinal/59582.tracklets.final
RemoveSubsets:                               true
Short-circuit if possible:                   true
Sort sets by size before set intersection:   false
Keep only longest tracklet(s) per detection: true
Reading infile, starting at Sun Jan 10 14:48:16 2016

Finished reading infile at Sun Jan 10 14:48:16 2016

Reading input took 0.0000000000 seconds.
Building detection-to-track map, starting at Sun Jan 10 14:48:16 2016

Finished detection-to-track map, filtering tracks starting at Sun Jan 10 14:48:16 2016

Finished filtering, writing output starting at Sun Jan 10 14:48:16 2016

Completed after 0.0000000000 seconds.
Finished successfully finished at Sun Jan 10 14:48:16 2016

This process (12131) memory usage: 
------------------------------------------
------------------------------------------

RemoveSubsets:
---------------
Input file:                                  /Users/joachim/repos/neosim/unittest/controlRun/trackletsPurified/59583.tracklets.purified
Output file:                                 /Users/joachim/repos/neosim/unittest/controlRun/trackletsFinal/59583.tracklets.final
RemoveSubsets:                               true
Short-circuit if possible:                   true
Sort sets by size before set intersection:   false
Keep only longest tracklet(s) per detection: true
Reading infile, starting at Sun Jan 10 14:48:16 2016

Finished reading infile at Sun Jan 10 14:48:16 2016

Reading input took 0.0000000000 seconds.
Building detection-to-track map, starting at Sun Jan 10 14:48:16 2016

Finished detection-to-track map, filtering tracks starting at Sun Jan 10 14:48:16 2016

Finished filtering, writing output starting at Sun Jan 10 14:48:16 2016

Completed after 0.0000000000 seconds.
Finished successfully finished at Sun Jan 10 14:48:16 2016

This process (12133) memory usage: 
------------------------------------------
------------------------------------------

RemoveSubsets:
---------------
Input file:                                  /Users/joachim/repos/neosim/unittest/controlRun/trackletsPurified/59584.tracklets.purified
Output file:                                 /Users/joachim/repos/neosim/unittest/controlRun/trackletsFinal/59584.tracklets.final
RemoveSubsets:                               true
Short-circuit if possible:                   true
Sort sets by size before set intersection:   false
Keep only longest tracklet(s) per detection: true
Reading infile, starting at Sun Jan 10 14:48:16 2016

Finished reading infile at Sun Jan 10 14:48:16 2016

Reading input took 0.0000000000 seconds.
Building detection-to-track map, starting at Sun Jan 10 14:48:16 2016

Finished detection-to-track map, filtering tracks starting at Sun Jan 10 14:48:16 2016

Finished filtering, writing output starting at Sun Jan 10 14:48:16 2016

Completed after 0.0000000000 seconds.
Finished successfully finished at Sun Jan 10 14:48:16 2016

This process (12135) memory usage: 
------------------------------------------
------------------------------------------

RemoveSubsets:
---------------
Input file:                                  /Users/joachim/repos/neosim/unittest/controlRun/trackletsPurified/59585.tracklets.purified
Output file:                                 /Users/joachim/repos/neosim/unittest/controlRun/trackletsFinal/59585.tracklets.final
RemoveSubsets:                               true
Short-circuit if possible:                   true
Sort sets by size before set intersection:   false
Keep only longest tracklet(s) per detection: true
Reading infile, starting at Sun Jan 10 14:48:16 2016

Finished reading infile at Sun Jan 10 14:48:16 2016

Reading input took 0.0000000000 seconds.
Building detection-to-track map, starting at Sun Jan 10 14:48:16 2016

Finished detection-to-track map, filtering tracks starting at Sun Jan 10 14:48:16 2016

Finished filtering, writing output starting at Sun Jan 10 14:48:16 2016

Completed after 0.0000000000 seconds.
Finished successfully finished at Sun Jan 10 14:48:16 2016

This process (12137) memory usage: 
------------------------------------------
------------------------------------------

RemoveSubsets:
---------------
Input file:                                  /Users/joachim/repos/neosim/unittest/controlRun/trackletsPurified/59586.tracklets.purified
Output file:                                 /Users/joachim/repos/neosim/unittest/controlRun/trackletsFinal/59586.tracklets.final
RemoveSubsets:                               true
Short-circuit if possible:                   true
Sort sets by size before set intersection:   false
Keep only longest tracklet(s) per detection: true
Reading infile, starting at Sun Jan 10 14:48:16 2016

Finished reading infile at Sun Jan 10 14:48:16 2016

Reading input took 0.0000000000 seconds.
Building detection-to-track map, starting at Sun Jan 10 14:48:16 2016

Finished detection-to-track map, filtering tracks starting at Sun Jan 10 14:48:16 2016

Finished filtering, writing output starting at Sun Jan 10 14:48:16 2016

Completed after 0.0000000000 seconds.
Finished successfully finished at Sun Jan 10 14:48:16 2016

This process (12139) memory usage: 
------------------------------------------
------------------------------------------

RemoveSubsets:
---------------
Input file:                                  /Users/joachim/repos/neosim/unittest/controlRun/trackletsPurified/59587.tracklets.purified
Output file:                                 /Users/joachim/repos/neosim/unittest/controlRun/trackletsFinal/59587.tracklets.final
RemoveSubsets:                               true
Short-circuit if possible:                   true
Sort sets by size before set intersection:   false
Keep only longest tracklet(s) per detection: true
Reading infile, starting at Sun Jan 10 14:48:16 2016

Finished reading infile at Sun Jan 10 14:48:16 2016

Reading input took 0.0000000000 seconds.
Building detection-to-track map, starting at Sun Jan 10 14:48:16 2016

Finished detection-to-track map, filtering tracks starting at Sun Jan 10 14:48:16 2016

Finished filtering, writing output starting at Sun Jan 10 14:48:16 2016

Completed after 0.0000000000 seconds.
Finished successfully finished at Sun Jan 10 14:48:16 2016

This process (12141) memory usage: 
------------------------------------------
------------------------------------------

RemoveSubsets:
---------------
Input file:                                  /Users/joachim/repos/neosim/unittest/controlRun/trackletsPurified/59588.tracklets.purified
Output file:                                 /Users/joachim/repos/neosim/unittest/controlRun/trackletsFinal/59588.tracklets.final
RemoveSubsets:                               true
Short-circuit if possible:                   true
Sort sets by size before set intersection:   false
Keep only longest tracklet(s) per detection: true
Reading infile, starting at Sun Jan 10 14:48:16 2016

Finished reading infile at Sun Jan 10 14:48:16 2016

Reading input took 0.0000000000 seconds.
Building detection-to-track map, starting at Sun Jan 10 14:48:16 2016

Finished detection-to-track map, filtering tracks starting at Sun Jan 10 14:48:16 2016

Finished filtering, writing output starting at Sun Jan 10 14:48:16 2016

Completed after 0.0000000000 seconds.
Finished successfully finished at Sun Jan 10 14:48:16 2016

This process (12143) memory usage: 
------------------------------------------
------------------------------------------

RemoveSubsets:
---------------
Input file:                                  /Users/joachim/repos/neosim/unittest/controlRun/trackletsPurified/59589.tracklets.purified
Output file:                                 /Users/joachim/repos/neosim/unittest/controlRun/trackletsFinal/59589.tracklets.final
RemoveSubsets:                               true
Short-circuit if possible:                   true
Sort sets by size before set intersection:   false
Keep only longest tracklet(s) per detection: true
Reading infile, starting at Sun Jan 10 14:48:16 2016

Finished reading infile at Sun Jan 10 14:48:16 2016

Reading input took 0.0000000000 seconds.
Building detection-to-track map, starting at Sun Jan 10 14:48:16 2016

Finished detection-to-track map, filtering tracks starting at Sun Jan 10 14:48:16 2016

Finished filtering, writing output starting at Sun Jan 10 14:48:16 2016

Completed after 0.0000000000 seconds.
Finished successfully finished at Sun Jan 10 14:48:16 2016

This process (12145) memory usage: 
------------------------------------------
------------------------------------------

RemoveSubsets:
---------------
Input file:                                  /Users/joachim/repos/neosim/unittest/controlRun/trackletsPurified/59590.tracklets.purified
Output file:                                 /Users/joachim/repos/neosim/unittest/controlRun/trackletsFinal/59590.tracklets.final
RemoveSubsets:                               true
Short-circuit if possible:                   true
Sort sets by size before set intersection:   false
Keep only longest tracklet(s) per detection: true
Reading infile, starting at Sun Jan 10 14:48:16 2016

Finished reading infile at Sun Jan 10 14:48:16 2016

Reading input took 0.0000000000 seconds.
Building detection-to-track map, starting at Sun Jan 10 14:48:16 2016

Finished detection-to-track map, filtering tracks starting at Sun Jan 10 14:48:16 2016

Finished filtering, writing output starting at Sun Jan 10 14:48:16 2016

Completed after 0.0000000000 seconds.
Finished successfully finished at Sun Jan 10 14:48:16 2016

This process (12147) memory usage: 
------------------------------------------
------------------------------------------

RemoveSubsets:
---------------
Input file:                                  /Users/joachim/repos/neosim/unittest/controlRun/trackletsPurified/59591.tracklets.purified
Output file:                                 /Users/joachim/repos/neosim/unittest/controlRun/trackletsFinal/59591.tracklets.final
RemoveSubsets:                               true
Short-circuit if possible:                   true
Sort sets by size before set intersection:   false
Keep only longest tracklet(s) per detection: true
Reading infile, starting at Sun Jan 10 14:48:16 2016

Finished reading infile at Sun Jan 10 14:48:16 2016

Reading input took 0.0000000000 seconds.
Building detection-to-track map, starting at Sun Jan 10 14:48:16 2016

Finished detection-to-track map, filtering tracks starting at Sun Jan 10 14:48:16 2016

Finished filtering, writing output starting at Sun Jan 10 14:48:16 2016

Completed after 0.0000000000 seconds.
Finished successfully finished at Sun Jan 10 14:48:16 2016

This process (12149) memory usage: 
------------------------------------------
------------------------------------------

RemoveSubsets:
---------------
Input file:                                  /Users/joachim/repos/neosim/unittest/controlRun/trackletsPurified/59592.tracklets.purified
Output file:                                 /Users/joachim/repos/neosim/unittest/controlRun/trackletsFinal/59592.tracklets.final
RemoveSubsets:                               true
Short-circuit if possible:                   true
Sort sets by size before set intersection:   false
Keep only longest tracklet(s) per detection: true
Reading infile, starting at Sun Jan 10 14:48:16 2016

Finished reading infile at Sun Jan 10 14:48:16 2016

Reading input took 0.0000000000 seconds.
Building detection-to-track map, starting at Sun Jan 10 14:48:16 2016

Finished detection-to-track map, filtering tracks starting at Sun Jan 10 14:48:16 2016

Finished filtering, writing output starting at Sun Jan 10 14:48:16 2016

Completed after 0.0000000000 seconds.
Finished successfully finished at Sun Jan 10 14:48:16 2016

This process (12151) memory usage: 
------------------------------------------
------------------------------------------

RemoveSubsets:
---------------
Input file:                                  /Users/joachim/repos/neosim/unittest/controlRun/trackletsPurified/59593.tracklets.purified
Output file:                                 /Users/joachim/repos/neosim/unittest/controlRun/trackletsFinal/59593.tracklets.final
RemoveSubsets:                               true
Short-circuit if possible:                   true
Sort sets by size before set intersection:   false
Keep only longest tracklet(s) per detection: true
Reading infile, starting at Sun Jan 10 14:48:16 2016

Finished reading infile at Sun Jan 10 14:48:16 2016

Reading input took 0.0000000000 seconds.
Building detection-to-track map, starting at Sun Jan 10 14:48:16 2016

Finished detection-to-track map, filtering tracks starting at Sun Jan 10 14:48:16 2016

Finished filtering, writing output starting at Sun Jan 10 14:48:16 2016

Completed after 0.0000000000 seconds.
Finished successfully finished at Sun Jan 10 14:48:16 2016

This process (12153) memory usage: 
------------------------------------------
------------------------------------------

RemoveSubsets:
---------------
Input file:                                  /Users/joachim/repos/neosim/unittest/controlRun/trackletsPurified/59594.tracklets.purified
Output file:                                 /Users/joachim/repos/neosim/unittest/controlRun/trackletsFinal/59594.tracklets.final
RemoveSubsets:                               true
Short-circuit if possible:                   true
Sort sets by size before set intersection:   false
Keep only longest tracklet(s) per detection: true
Reading infile, starting at Sun Jan 10 14:48:16 2016

Finished reading infile at Sun Jan 10 14:48:16 2016

Reading input took 0.0000000000 seconds.
Building detection-to-track map, starting at Sun Jan 10 14:48:16 2016

Finished detection-to-track map, filtering tracks starting at Sun Jan 10 14:48:16 2016

Finished filtering, writing output starting at Sun Jan 10 14:48:16 2016

Completed after 0.0000000000 seconds.
Finished successfully finished at Sun Jan 10 14:48:16 2016

This process (12155) memory usage: 
------------------------------------------
------------------------------------------

RemoveSubsets:
---------------
Input file:                                  /Users/joachim/repos/neosim/unittest/controlRun/trackletsPurified/59595.tracklets.purified
Output file:                                 /Users/joachim/repos/neosim/unittest/controlRun/trackletsFinal/59595.tracklets.final
RemoveSubsets:                               true
Short-circuit if possible:                   true
Sort sets by size before set intersection:   false
Keep only longest tracklet(s) per detection: true
Reading infile, starting at Sun Jan 10 14:48:16 2016

Finished reading infile at Sun Jan 10 14:48:16 2016

Reading input took 0.0000000000 seconds.
Building detection-to-track map, starting at Sun Jan 10 14:48:16 2016

Finished detection-to-track map, filtering tracks starting at Sun Jan 10 14:48:16 2016

Finished filtering, writing output starting at Sun Jan 10 14:48:16 2016

Completed after 0.0000000000 seconds.
Finished successfully finished at Sun Jan 10 14:48:16 2016

This process (12157) memory usage: 
------------------------------------------
------------------------------------------

RemoveSubsets:
---------------
Input file:                                  /Users/joachim/repos/neosim/unittest/controlRun/trackletsPurified/59596.tracklets.purified
Output file:                                 /Users/joachim/repos/neosim/unittest/controlRun/trackletsFinal/59596.tracklets.final
RemoveSubsets:                               true
Short-circuit if possible:                   true
Sort sets by size before set intersection:   false
Keep only longest tracklet(s) per detection: true
Reading infile, starting at Sun Jan 10 14:48:16 2016

Finished reading infile at Sun Jan 10 14:48:16 2016

Reading input took 0.0000000000 seconds.
Building detection-to-track map, starting at Sun Jan 10 14:48:16 2016

Finished detection-to-track map, filtering tracks starting at Sun Jan 10 14:48:16 2016

Finished filtering, writing output starting at Sun Jan 10 14:48:16 2016

Completed after 0.0000000000 seconds.
Finished successfully finished at Sun Jan 10 14:48:16 2016

This process (12159) memory usage: 
------------------------------------------
------------------------------------------

RemoveSubsets:
---------------
Input file:                                  /Users/joachim/repos/neosim/unittest/controlRun/trackletsPurified/59597.tracklets.purified
Output file:                                 /Users/joachim/repos/neosim/unittest/controlRun/trackletsFinal/59597.tracklets.final
RemoveSubsets:                               true
Short-circuit if possible:                   true
Sort sets by size before set intersection:   false
Keep only longest tracklet(s) per detection: true
Reading infile, starting at Sun Jan 10 14:48:16 2016

Finished reading infile at Sun Jan 10 14:48:16 2016

Reading input took 0.0000000000 seconds.
Building detection-to-track map, starting at Sun Jan 10 14:48:16 2016

Finished detection-to-track map, filtering tracks starting at Sun Jan 10 14:48:16 2016

Finished filtering, writing output starting at Sun Jan 10 14:48:16 2016

Completed after 0.0000000000 seconds.
Finished successfully finished at Sun Jan 10 14:48:16 2016

This process (12161) memory usage: 
------------------------------------------
------------------------------------------

RemoveSubsets:
---------------
Input file:                                  /Users/joachim/repos/neosim/unittest/controlRun/trackletsPurified/59598.tracklets.purified
Output file:                                 /Users/joachim/repos/neosim/unittest/controlRun/trackletsFinal/59598.tracklets.final
RemoveSubsets:                               true
Short-circuit if possible:                   true
Sort sets by size before set intersection:   false
Keep only longest tracklet(s) per detection: true
Reading infile, starting at Sun Jan 10 14:48:16 2016

Finished reading infile at Sun Jan 10 14:48:16 2016

Reading input took 0.0000000000 seconds.
Building detection-to-track map, starting at Sun Jan 10 14:48:16 2016

Finished detection-to-track map, filtering tracks starting at Sun Jan 10 14:48:16 2016

Finished filtering, writing output starting at Sun Jan 10 14:48:16 2016

Completed after 0.0000000000 seconds.
Finished successfully finished at Sun Jan 10 14:48:16 2016

This process (12163) memory usage: 
------------------------------------------
------------------------------------------

RemoveSubsets:
---------------
Input file:                                  /Users/joachim/repos/neosim/unittest/controlRun/trackletsPurified/59599.tracklets.purified
Output file:                                 /Users/joachim/repos/neosim/unittest/controlRun/trackletsFinal/59599.tracklets.final
RemoveSubsets:                               true
Short-circuit if possible:                   true
Sort sets by size before set intersection:   false
Keep only longest tracklet(s) per detection: true
Reading infile, starting at Sun Jan 10 14:48:16 2016

Finished reading infile at Sun Jan 10 14:48:16 2016

Reading input took 0.0000000000 seconds.
Building detection-to-track map, starting at Sun Jan 10 14:48:16 2016

Finished detection-to-track map, filtering tracks starting at Sun Jan 10 14:48:16 2016

Finished filtering, writing output starting at Sun Jan 10 14:48:16 2016

Completed after 0.0000000000 seconds.
Finished successfully finished at Sun Jan 10 14:48:16 2016

This process (12165) memory usage: 
------------------------------------------
------------------------------------------

RemoveSubsets:
---------------
Input file:                                  /Users/joachim/repos/neosim/unittest/controlRun/trackletsPurified/59600.tracklets.purified
Output file:                                 /Users/joachim/repos/neosim/unittest/controlRun/trackletsFinal/59600.tracklets.final
RemoveSubsets:                               true
Short-circuit if possible:                   true
Sort sets by size before set intersection:   false
Keep only longest tracklet(s) per detection: true
Reading infile, starting at Sun Jan 10 14:48:16 2016

Finished reading infile at Sun Jan 10 14:48:16 2016

Reading input took 0.0000000000 seconds.
Building detection-to-track map, starting at Sun Jan 10 14:48:16 2016

Finished detection-to-track map, filtering tracks starting at Sun Jan 10 14:48:16 2016

Finished filtering, writing output starting at Sun Jan 10 14:48:16 2016

Completed after 0.0000000000 seconds.
Finished successfully finished at Sun Jan 10 14:48:16 2016

This process (12167) memory usage: 
------------------------------------------
------------------------------------------

RemoveSubsets:
---------------
Input file:                                  /Users/joachim/repos/neosim/unittest/controlRun/trackletsPurified/59601.tracklets.purified
Output file:                                 /Users/joachim/repos/neosim/unittest/controlRun/trackletsFinal/59601.tracklets.final
RemoveSubsets:                               true
Short-circuit if possible:                   true
Sort sets by size before set intersection:   false
Keep only longest tracklet(s) per detection: true
Reading infile, starting at Sun Jan 10 14:48:16 2016

Finished reading infile at Sun Jan 10 14:48:16 2016

Reading input took 0.0000000000 seconds.
Building detection-to-track map, starting at Sun Jan 10 14:48:16 2016

Finished detection-to-track map, filtering tracks starting at Sun Jan 10 14:48:16 2016

Finished filtering, writing output starting at Sun Jan 10 14:48:16 2016

Completed after 0.0000000000 seconds.
Finished successfully finished at Sun Jan 10 14:48:16 2016

This process (12169) memory usage: 
------------------------------------------
------------------------------------------

RemoveSubsets:
---------------
Input file:                                  /Users/joachim/repos/neosim/unittest/controlRun/trackletsPurified/59602.tracklets.purified
Output file:                                 /Users/joachim/repos/neosim/unittest/controlRun/trackletsFinal/59602.tracklets.final
RemoveSubsets:                               true
Short-circuit if possible:                   true
Sort sets by size before set intersection:   false
Keep only longest tracklet(s) per detection: true
Reading infile, starting at Sun Jan 10 14:48:16 2016

Finished reading infile at Sun Jan 10 14:48:16 2016

Reading input took 0.0000000000 seconds.
Building detection-to-track map, starting at Sun Jan 10 14:48:16 2016

Finished detection-to-track map, filtering tracks starting at Sun Jan 10 14:48:16 2016

Finished filtering, writing output starting at Sun Jan 10 14:48:16 2016

Completed after 0.0000000000 seconds.
Finished successfully finished at Sun Jan 10 14:48:16 2016

This process (12171) memory usage: 
------------------------------------------
------------------------------------------

RemoveSubsets:
---------------
Input file:                                  /Users/joachim/repos/neosim/unittest/controlRun/trackletsPurified/59603.tracklets.purified
Output file:                                 /Users/joachim/repos/neosim/unittest/controlRun/trackletsFinal/59603.tracklets.final
RemoveSubsets:                               true
Short-circuit if possible:                   true
Sort sets by size before set intersection:   false
Keep only longest tracklet(s) per detection: true
Reading infile, starting at Sun Jan 10 14:48:16 2016

Finished reading infile at Sun Jan 10 14:48:16 2016

Reading input took 0.0000000000 seconds.
Building detection-to-track map, starting at Sun Jan 10 14:48:16 2016

Finished detection-to-track map, filtering tracks starting at Sun Jan 10 14:48:16 2016

Finished filtering, writing output starting at Sun Jan 10 14:48:16 2016

Completed after 0.0000000000 seconds.
Finished successfully finished at Sun Jan 10 14:48:16 2016

This process (12173) memory usage: 
------------------------------------------
------------------------------------------

RemoveSubsets:
---------------
Input file:                                  /Users/joachim/repos/neosim/unittest/controlRun/trackletsPurified/59604.tracklets.purified
Output file:                                 /Users/joachim/repos/neosim/unittest/controlRun/trackletsFinal/59604.tracklets.final
RemoveSubsets:                               true
Short-circuit if possible:                   true
Sort sets by size before set intersection:   false
Keep only longest tracklet(s) per detection: true
Reading infile, starting at Sun Jan 10 14:48:16 2016

Finished reading infile at Sun Jan 10 14:48:16 2016

Reading input took 0.0000000000 seconds.
Building detection-to-track map, starting at Sun Jan 10 14:48:16 2016

Finished detection-to-track map, filtering tracks starting at Sun Jan 10 14:48:16 2016

Finished filtering, writing output starting at Sun Jan 10 14:48:16 2016

Completed after 0.0000000000 seconds.
Finished successfully finished at Sun Jan 10 14:48:16 2016

This process (12175) memory usage: 
------------------------------------------
------------------------------------------

RemoveSubsets:
---------------
Input file:                                  /Users/joachim/repos/neosim/unittest/controlRun/trackletsPurified/59605.tracklets.purified
Output file:                                 /Users/joachim/repos/neosim/unittest/controlRun/trackletsFinal/59605.tracklets.final
RemoveSubsets:                               true
Short-circuit if possible:                   true
Sort sets by size before set intersection:   false
Keep only longest tracklet(s) per detection: true
Reading infile, starting at Sun Jan 10 14:48:16 2016

Finished reading infile at Sun Jan 10 14:48:16 2016

Reading input took 0.0000000000 seconds.
Building detection-to-track map, starting at Sun Jan 10 14:48:16 2016

Finished detection-to-track map, filtering tracks starting at Sun Jan 10 14:48:16 2016

Finished filtering, writing output starting at Sun Jan 10 14:48:16 2016

Completed after 0.0000000000 seconds.
Finished successfully finished at Sun Jan 10 14:48:16 2016

This process (12177) memory usage: 
------------------------------------------
------------------------------------------

RemoveSubsets:
---------------
Input file:                                  /Users/joachim/repos/neosim/unittest/controlRun/trackletsPurified/59606.tracklets.purified
Output file:                                 /Users/joachim/repos/neosim/unittest/controlRun/trackletsFinal/59606.tracklets.final
RemoveSubsets:                               true
Short-circuit if possible:                   true
Sort sets by size before set intersection:   false
Keep only longest tracklet(s) per detection: true
Reading infile, starting at Sun Jan 10 14:48:16 2016

Finished reading infile at Sun Jan 10 14:48:16 2016

Reading input took 0.0000000000 seconds.
Building detection-to-track map, starting at Sun Jan 10 14:48:16 2016

Finished detection-to-track map, filtering tracks starting at Sun Jan 10 14:48:16 2016

Finished filtering, writing output starting at Sun Jan 10 14:48:16 2016

Completed after 0.0000000000 seconds.
Finished successfully finished at Sun Jan 10 14:48:16 2016

This process (12179) memory usage: 
------------------------------------------
------------------------------------------

RemoveSubsets:
---------------
Input file:                                  /Users/joachim/repos/neosim/unittest/controlRun/trackletsPurified/59607.tracklets.purified
Output file:                                 /Users/joachim/repos/neosim/unittest/controlRun/trackletsFinal/59607.tracklets.final
RemoveSubsets:                               true
Short-circuit if possible:                   true
Sort sets by size before set intersection:   false
Keep only longest tracklet(s) per detection: true
Reading infile, starting at Sun Jan 10 14:48:16 2016

Finished reading infile at Sun Jan 10 14:48:16 2016

Reading input took 0.0000000000 seconds.
Building detection-to-track map, starting at Sun Jan 10 14:48:16 2016

Finished detection-to-track map, filtering tracks starting at Sun Jan 10 14:48:16 2016

Finished filtering, writing output starting at Sun Jan 10 14:48:16 2016

Completed after 0.0000000000 seconds.
Finished successfully finished at Sun Jan 10 14:48:16 2016

This process (12181) memory usage: 
------------------------------------------
------------------------------------------

RemoveSubsets:
---------------
Input file:                                  /Users/joachim/repos/neosim/unittest/controlRun/trackletsPurified/59608.tracklets.purified
Output file:                                 /Users/joachim/repos/neosim/unittest/controlRun/trackletsFinal/59608.tracklets.final
RemoveSubsets:                               true
Short-circuit if possible:                   true
Sort sets by size before set intersection:   false
Keep only longest tracklet(s) per detection: true
Reading infile, starting at Sun Jan 10 14:48:16 2016

Finished reading infile at Sun Jan 10 14:48:16 2016

Reading input took 0.0000000000 seconds.
Building detection-to-track map, starting at Sun Jan 10 14:48:16 2016

Finished detection-to-track map, filtering tracks starting at Sun Jan 10 14:48:16 2016

Finished filtering, writing output starting at Sun Jan 10 14:48:16 2016

Completed after 0.0000000000 seconds.
Finished successfully finished at Sun Jan 10 14:48:16 2016

This process (12183) memory usage: 
------------------------------------------
------------------------------------------

RemoveSubsets:
---------------
Input file:                                  /Users/joachim/repos/neosim/unittest/controlRun/trackletsPurified/59609.tracklets.purified
Output file:                                 /Users/joachim/repos/neosim/unittest/controlRun/trackletsFinal/59609.tracklets.final
RemoveSubsets:                               true
Short-circuit if possible:                   true
Sort sets by size before set intersection:   false
Keep only longest tracklet(s) per detection: true
Reading infile, starting at Sun Jan 10 14:48:16 2016

Finished reading infile at Sun Jan 10 14:48:16 2016

Reading input took 0.0000000000 seconds.
Building detection-to-track map, starting at Sun Jan 10 14:48:16 2016

Finished detection-to-track map, filtering tracks starting at Sun Jan 10 14:48:16 2016

Finished filtering, writing output starting at Sun Jan 10 14:48:16 2016

Completed after 0.0000000000 seconds.
Finished successfully finished at Sun Jan 10 14:48:16 2016

This process (12185) memory usage: 
------------------------------------------
------------------------------------------

