RemoveSubsets:
---------------
Input file:                                  /Users/joachim/repos/neosim/unittest/controlRun/trackletsPurified/59580.tracklets.purified
Output file:                                 /Users/joachim/repos/neosim/unittest/controlRun/trackletsFinal/59580.tracklets.final
RemoveSubsets:                               false
Short-circuit if possible:                   true
Sort sets by size before set intersection:   false
Keep only longest tracklet(s) per detection: false
Reading infile, starting at Fri Feb  5 12:14:33 2016

Finished reading infile at Fri Feb  5 12:14:33 2016

Reading input took 0.0000000000 seconds.
Finished filtering, writing output starting at Fri Feb  5 12:14:33 2016

Completed after 0.0000000000 seconds.
Finished successfully finished at Fri Feb  5 12:14:33 2016

This process (25179) memory usage: 
------------------------------------------
------------------------------------------

RemoveSubsets:
---------------
Input file:                                  /Users/joachim/repos/neosim/unittest/controlRun/trackletsPurified/59581.tracklets.purified
Output file:                                 /Users/joachim/repos/neosim/unittest/controlRun/trackletsFinal/59581.tracklets.final
RemoveSubsets:                               false
Short-circuit if possible:                   true
Sort sets by size before set intersection:   false
Keep only longest tracklet(s) per detection: false
Reading infile, starting at Fri Feb  5 12:14:33 2016

Finished reading infile at Fri Feb  5 12:14:33 2016

Reading input took 0.0000000000 seconds.
Finished filtering, writing output starting at Fri Feb  5 12:14:33 2016

Completed after 0.0000000000 seconds.
Finished successfully finished at Fri Feb  5 12:14:33 2016

This process (25181) memory usage: 
------------------------------------------
------------------------------------------

RemoveSubsets:
---------------
Input file:                                  /Users/joachim/repos/neosim/unittest/controlRun/trackletsPurified/59582.tracklets.purified
Output file:                                 /Users/joachim/repos/neosim/unittest/controlRun/trackletsFinal/59582.tracklets.final
RemoveSubsets:                               false
Short-circuit if possible:                   true
Sort sets by size before set intersection:   false
Keep only longest tracklet(s) per detection: false
Reading infile, starting at Fri Feb  5 12:14:33 2016

Finished reading infile at Fri Feb  5 12:14:33 2016

Reading input took 0.0000000000 seconds.
Finished filtering, writing output starting at Fri Feb  5 12:14:33 2016

Completed after 0.0000000000 seconds.
Finished successfully finished at Fri Feb  5 12:14:33 2016

This process (25183) memory usage: 
------------------------------------------
------------------------------------------

RemoveSubsets:
---------------
Input file:                                  /Users/joachim/repos/neosim/unittest/controlRun/trackletsPurified/59583.tracklets.purified
Output file:                                 /Users/joachim/repos/neosim/unittest/controlRun/trackletsFinal/59583.tracklets.final
RemoveSubsets:                               false
Short-circuit if possible:                   true
Sort sets by size before set intersection:   false
Keep only longest tracklet(s) per detection: false
Reading infile, starting at Fri Feb  5 12:14:33 2016

Finished reading infile at Fri Feb  5 12:14:33 2016

Reading input took 0.0000000000 seconds.
Finished filtering, writing output starting at Fri Feb  5 12:14:33 2016

Completed after 0.0000000000 seconds.
Finished successfully finished at Fri Feb  5 12:14:33 2016

This process (25185) memory usage: 
------------------------------------------
------------------------------------------

RemoveSubsets:
---------------
Input file:                                  /Users/joachim/repos/neosim/unittest/controlRun/trackletsPurified/59584.tracklets.purified
Output file:                                 /Users/joachim/repos/neosim/unittest/controlRun/trackletsFinal/59584.tracklets.final
RemoveSubsets:                               false
Short-circuit if possible:                   true
Sort sets by size before set intersection:   false
Keep only longest tracklet(s) per detection: false
Reading infile, starting at Fri Feb  5 12:14:33 2016

Finished reading infile at Fri Feb  5 12:14:33 2016

Reading input took 0.0000000000 seconds.
Finished filtering, writing output starting at Fri Feb  5 12:14:33 2016

Completed after 0.0000000000 seconds.
Finished successfully finished at Fri Feb  5 12:14:33 2016

This process (25187) memory usage: 
------------------------------------------
------------------------------------------

RemoveSubsets:
---------------
Input file:                                  /Users/joachim/repos/neosim/unittest/controlRun/trackletsPurified/59585.tracklets.purified
Output file:                                 /Users/joachim/repos/neosim/unittest/controlRun/trackletsFinal/59585.tracklets.final
RemoveSubsets:                               false
Short-circuit if possible:                   true
Sort sets by size before set intersection:   false
Keep only longest tracklet(s) per detection: false
Reading infile, starting at Fri Feb  5 12:14:33 2016

Finished reading infile at Fri Feb  5 12:14:33 2016

Reading input took 0.0000000000 seconds.
Finished filtering, writing output starting at Fri Feb  5 12:14:33 2016

Completed after 0.0000000000 seconds.
Finished successfully finished at Fri Feb  5 12:14:33 2016

This process (25189) memory usage: 
------------------------------------------
------------------------------------------

RemoveSubsets:
---------------
Input file:                                  /Users/joachim/repos/neosim/unittest/controlRun/trackletsPurified/59586.tracklets.purified
Output file:                                 /Users/joachim/repos/neosim/unittest/controlRun/trackletsFinal/59586.tracklets.final
RemoveSubsets:                               false
Short-circuit if possible:                   true
Sort sets by size before set intersection:   false
Keep only longest tracklet(s) per detection: false
Reading infile, starting at Fri Feb  5 12:14:33 2016

Finished reading infile at Fri Feb  5 12:14:33 2016

Reading input took 0.0000000000 seconds.
Finished filtering, writing output starting at Fri Feb  5 12:14:33 2016

Completed after 0.0000000000 seconds.
Finished successfully finished at Fri Feb  5 12:14:33 2016

This process (25191) memory usage: 
------------------------------------------
------------------------------------------

RemoveSubsets:
---------------
Input file:                                  /Users/joachim/repos/neosim/unittest/controlRun/trackletsPurified/59587.tracklets.purified
Output file:                                 /Users/joachim/repos/neosim/unittest/controlRun/trackletsFinal/59587.tracklets.final
RemoveSubsets:                               false
Short-circuit if possible:                   true
Sort sets by size before set intersection:   false
Keep only longest tracklet(s) per detection: false
Reading infile, starting at Fri Feb  5 12:14:33 2016

Finished reading infile at Fri Feb  5 12:14:33 2016

Reading input took 0.0000000000 seconds.
Finished filtering, writing output starting at Fri Feb  5 12:14:33 2016

Completed after 0.0000000000 seconds.
Finished successfully finished at Fri Feb  5 12:14:33 2016

This process (25193) memory usage: 
------------------------------------------
------------------------------------------

RemoveSubsets:
---------------
Input file:                                  /Users/joachim/repos/neosim/unittest/controlRun/trackletsPurified/59588.tracklets.purified
Output file:                                 /Users/joachim/repos/neosim/unittest/controlRun/trackletsFinal/59588.tracklets.final
RemoveSubsets:                               false
Short-circuit if possible:                   true
Sort sets by size before set intersection:   false
Keep only longest tracklet(s) per detection: false
Reading infile, starting at Fri Feb  5 12:14:33 2016

Finished reading infile at Fri Feb  5 12:14:33 2016

Reading input took 0.0000000000 seconds.
Finished filtering, writing output starting at Fri Feb  5 12:14:33 2016

Completed after 0.0000000000 seconds.
Finished successfully finished at Fri Feb  5 12:14:33 2016

This process (25195) memory usage: 
------------------------------------------
------------------------------------------

RemoveSubsets:
---------------
Input file:                                  /Users/joachim/repos/neosim/unittest/controlRun/trackletsPurified/59589.tracklets.purified
Output file:                                 /Users/joachim/repos/neosim/unittest/controlRun/trackletsFinal/59589.tracklets.final
RemoveSubsets:                               false
Short-circuit if possible:                   true
Sort sets by size before set intersection:   false
Keep only longest tracklet(s) per detection: false
Reading infile, starting at Fri Feb  5 12:14:33 2016

Finished reading infile at Fri Feb  5 12:14:33 2016

Reading input took 0.0000000000 seconds.
Finished filtering, writing output starting at Fri Feb  5 12:14:33 2016

Completed after 0.0000000000 seconds.
Finished successfully finished at Fri Feb  5 12:14:33 2016

This process (25197) memory usage: 
------------------------------------------
------------------------------------------

RemoveSubsets:
---------------
Input file:                                  /Users/joachim/repos/neosim/unittest/controlRun/trackletsPurified/59590.tracklets.purified
Output file:                                 /Users/joachim/repos/neosim/unittest/controlRun/trackletsFinal/59590.tracklets.final
RemoveSubsets:                               false
Short-circuit if possible:                   true
Sort sets by size before set intersection:   false
Keep only longest tracklet(s) per detection: false
Reading infile, starting at Fri Feb  5 12:14:33 2016

Finished reading infile at Fri Feb  5 12:14:33 2016

Reading input took 0.0000000000 seconds.
Finished filtering, writing output starting at Fri Feb  5 12:14:33 2016

Completed after 0.0000000000 seconds.
Finished successfully finished at Fri Feb  5 12:14:33 2016

This process (25199) memory usage: 
------------------------------------------
------------------------------------------

RemoveSubsets:
---------------
Input file:                                  /Users/joachim/repos/neosim/unittest/controlRun/trackletsPurified/59591.tracklets.purified
Output file:                                 /Users/joachim/repos/neosim/unittest/controlRun/trackletsFinal/59591.tracklets.final
RemoveSubsets:                               false
Short-circuit if possible:                   true
Sort sets by size before set intersection:   false
Keep only longest tracklet(s) per detection: false
Reading infile, starting at Fri Feb  5 12:14:33 2016

Finished reading infile at Fri Feb  5 12:14:33 2016

Reading input took 0.0000000000 seconds.
Finished filtering, writing output starting at Fri Feb  5 12:14:33 2016

Completed after 0.0000000000 seconds.
Finished successfully finished at Fri Feb  5 12:14:33 2016

This process (25201) memory usage: 
------------------------------------------
------------------------------------------

RemoveSubsets:
---------------
Input file:                                  /Users/joachim/repos/neosim/unittest/controlRun/trackletsPurified/59592.tracklets.purified
Output file:                                 /Users/joachim/repos/neosim/unittest/controlRun/trackletsFinal/59592.tracklets.final
RemoveSubsets:                               false
Short-circuit if possible:                   true
Sort sets by size before set intersection:   false
Keep only longest tracklet(s) per detection: false
Reading infile, starting at Fri Feb  5 12:14:33 2016

Finished reading infile at Fri Feb  5 12:14:33 2016

Reading input took 0.0000000000 seconds.
Finished filtering, writing output starting at Fri Feb  5 12:14:33 2016

Completed after 0.0000000000 seconds.
Finished successfully finished at Fri Feb  5 12:14:33 2016

This process (25203) memory usage: 
------------------------------------------
------------------------------------------

RemoveSubsets:
---------------
Input file:                                  /Users/joachim/repos/neosim/unittest/controlRun/trackletsPurified/59593.tracklets.purified
Output file:                                 /Users/joachim/repos/neosim/unittest/controlRun/trackletsFinal/59593.tracklets.final
RemoveSubsets:                               false
Short-circuit if possible:                   true
Sort sets by size before set intersection:   false
Keep only longest tracklet(s) per detection: false
Reading infile, starting at Fri Feb  5 12:14:33 2016

Finished reading infile at Fri Feb  5 12:14:33 2016

Reading input took 0.0000000000 seconds.
Finished filtering, writing output starting at Fri Feb  5 12:14:33 2016

Completed after 0.0000000000 seconds.
Finished successfully finished at Fri Feb  5 12:14:33 2016

This process (25205) memory usage: 
------------------------------------------
------------------------------------------

RemoveSubsets:
---------------
Input file:                                  /Users/joachim/repos/neosim/unittest/controlRun/trackletsPurified/59594.tracklets.purified
Output file:                                 /Users/joachim/repos/neosim/unittest/controlRun/trackletsFinal/59594.tracklets.final
RemoveSubsets:                               false
Short-circuit if possible:                   true
Sort sets by size before set intersection:   false
Keep only longest tracklet(s) per detection: false
Reading infile, starting at Fri Feb  5 12:14:33 2016

Finished reading infile at Fri Feb  5 12:14:33 2016

Reading input took 0.0000000000 seconds.
Finished filtering, writing output starting at Fri Feb  5 12:14:33 2016

Completed after 0.0000000000 seconds.
Finished successfully finished at Fri Feb  5 12:14:33 2016

This process (25207) memory usage: 
------------------------------------------
------------------------------------------

RemoveSubsets:
---------------
Input file:                                  /Users/joachim/repos/neosim/unittest/controlRun/trackletsPurified/59595.tracklets.purified
Output file:                                 /Users/joachim/repos/neosim/unittest/controlRun/trackletsFinal/59595.tracklets.final
RemoveSubsets:                               false
Short-circuit if possible:                   true
Sort sets by size before set intersection:   false
Keep only longest tracklet(s) per detection: false
Reading infile, starting at Fri Feb  5 12:14:33 2016

Finished reading infile at Fri Feb  5 12:14:33 2016

Reading input took 0.0000000000 seconds.
Finished filtering, writing output starting at Fri Feb  5 12:14:33 2016

Completed after 0.0000000000 seconds.
Finished successfully finished at Fri Feb  5 12:14:33 2016

This process (25209) memory usage: 
------------------------------------------
------------------------------------------

RemoveSubsets:
---------------
Input file:                                  /Users/joachim/repos/neosim/unittest/controlRun/trackletsPurified/59596.tracklets.purified
Output file:                                 /Users/joachim/repos/neosim/unittest/controlRun/trackletsFinal/59596.tracklets.final
RemoveSubsets:                               false
Short-circuit if possible:                   true
Sort sets by size before set intersection:   false
Keep only longest tracklet(s) per detection: false
Reading infile, starting at Fri Feb  5 12:14:33 2016

Finished reading infile at Fri Feb  5 12:14:33 2016

Reading input took 0.0000000000 seconds.
Finished filtering, writing output starting at Fri Feb  5 12:14:33 2016

Completed after 0.0000000000 seconds.
Finished successfully finished at Fri Feb  5 12:14:33 2016

This process (25211) memory usage: 
------------------------------------------
------------------------------------------

RemoveSubsets:
---------------
Input file:                                  /Users/joachim/repos/neosim/unittest/controlRun/trackletsPurified/59597.tracklets.purified
Output file:                                 /Users/joachim/repos/neosim/unittest/controlRun/trackletsFinal/59597.tracklets.final
RemoveSubsets:                               false
Short-circuit if possible:                   true
Sort sets by size before set intersection:   false
Keep only longest tracklet(s) per detection: false
Reading infile, starting at Fri Feb  5 12:14:33 2016

Finished reading infile at Fri Feb  5 12:14:33 2016

Reading input took 0.0000000000 seconds.
Finished filtering, writing output starting at Fri Feb  5 12:14:33 2016

Completed after 0.0000000000 seconds.
Finished successfully finished at Fri Feb  5 12:14:33 2016

This process (25213) memory usage: 
------------------------------------------
------------------------------------------

RemoveSubsets:
---------------
Input file:                                  /Users/joachim/repos/neosim/unittest/controlRun/trackletsPurified/59598.tracklets.purified
Output file:                                 /Users/joachim/repos/neosim/unittest/controlRun/trackletsFinal/59598.tracklets.final
RemoveSubsets:                               false
Short-circuit if possible:                   true
Sort sets by size before set intersection:   false
Keep only longest tracklet(s) per detection: false
Reading infile, starting at Fri Feb  5 12:14:33 2016

Finished reading infile at Fri Feb  5 12:14:33 2016

Reading input took 0.0000000000 seconds.
Finished filtering, writing output starting at Fri Feb  5 12:14:33 2016

Completed after 0.0000000000 seconds.
Finished successfully finished at Fri Feb  5 12:14:33 2016

This process (25215) memory usage: 
------------------------------------------
------------------------------------------

RemoveSubsets:
---------------
Input file:                                  /Users/joachim/repos/neosim/unittest/controlRun/trackletsPurified/59599.tracklets.purified
Output file:                                 /Users/joachim/repos/neosim/unittest/controlRun/trackletsFinal/59599.tracklets.final
RemoveSubsets:                               false
Short-circuit if possible:                   true
Sort sets by size before set intersection:   false
Keep only longest tracklet(s) per detection: false
Reading infile, starting at Fri Feb  5 12:14:33 2016

Finished reading infile at Fri Feb  5 12:14:33 2016

Reading input took 0.0000000000 seconds.
Finished filtering, writing output starting at Fri Feb  5 12:14:33 2016

Completed after 0.0000000000 seconds.
Finished successfully finished at Fri Feb  5 12:14:33 2016

This process (25217) memory usage: 
------------------------------------------
------------------------------------------

RemoveSubsets:
---------------
Input file:                                  /Users/joachim/repos/neosim/unittest/controlRun/trackletsPurified/59600.tracklets.purified
Output file:                                 /Users/joachim/repos/neosim/unittest/controlRun/trackletsFinal/59600.tracklets.final
RemoveSubsets:                               false
Short-circuit if possible:                   true
Sort sets by size before set intersection:   false
Keep only longest tracklet(s) per detection: false
Reading infile, starting at Fri Feb  5 12:14:33 2016

Finished reading infile at Fri Feb  5 12:14:33 2016

Reading input took 0.0000000000 seconds.
Finished filtering, writing output starting at Fri Feb  5 12:14:33 2016

Completed after 0.0000000000 seconds.
Finished successfully finished at Fri Feb  5 12:14:33 2016

This process (25219) memory usage: 
------------------------------------------
------------------------------------------

RemoveSubsets:
---------------
Input file:                                  /Users/joachim/repos/neosim/unittest/controlRun/trackletsPurified/59601.tracklets.purified
Output file:                                 /Users/joachim/repos/neosim/unittest/controlRun/trackletsFinal/59601.tracklets.final
RemoveSubsets:                               false
Short-circuit if possible:                   true
Sort sets by size before set intersection:   false
Keep only longest tracklet(s) per detection: false
Reading infile, starting at Fri Feb  5 12:14:33 2016

Finished reading infile at Fri Feb  5 12:14:33 2016

Reading input took 0.0000000000 seconds.
Finished filtering, writing output starting at Fri Feb  5 12:14:33 2016

Completed after 0.0000000000 seconds.
Finished successfully finished at Fri Feb  5 12:14:33 2016

This process (25221) memory usage: 
------------------------------------------
------------------------------------------

RemoveSubsets:
---------------
Input file:                                  /Users/joachim/repos/neosim/unittest/controlRun/trackletsPurified/59602.tracklets.purified
Output file:                                 /Users/joachim/repos/neosim/unittest/controlRun/trackletsFinal/59602.tracklets.final
RemoveSubsets:                               false
Short-circuit if possible:                   true
Sort sets by size before set intersection:   false
Keep only longest tracklet(s) per detection: false
Reading infile, starting at Fri Feb  5 12:14:33 2016

Finished reading infile at Fri Feb  5 12:14:33 2016

Reading input took 0.0000000000 seconds.
Finished filtering, writing output starting at Fri Feb  5 12:14:33 2016

Completed after 0.0000000000 seconds.
Finished successfully finished at Fri Feb  5 12:14:33 2016

This process (25223) memory usage: 
------------------------------------------
------------------------------------------

RemoveSubsets:
---------------
Input file:                                  /Users/joachim/repos/neosim/unittest/controlRun/trackletsPurified/59603.tracklets.purified
Output file:                                 /Users/joachim/repos/neosim/unittest/controlRun/trackletsFinal/59603.tracklets.final
RemoveSubsets:                               false
Short-circuit if possible:                   true
Sort sets by size before set intersection:   false
Keep only longest tracklet(s) per detection: false
Reading infile, starting at Fri Feb  5 12:14:33 2016

Finished reading infile at Fri Feb  5 12:14:33 2016

Reading input took 0.0000000000 seconds.
Finished filtering, writing output starting at Fri Feb  5 12:14:33 2016

Completed after 0.0000000000 seconds.
Finished successfully finished at Fri Feb  5 12:14:33 2016

This process (25225) memory usage: 
------------------------------------------
------------------------------------------

RemoveSubsets:
---------------
Input file:                                  /Users/joachim/repos/neosim/unittest/controlRun/trackletsPurified/59604.tracklets.purified
Output file:                                 /Users/joachim/repos/neosim/unittest/controlRun/trackletsFinal/59604.tracklets.final
RemoveSubsets:                               false
Short-circuit if possible:                   true
Sort sets by size before set intersection:   false
Keep only longest tracklet(s) per detection: false
Reading infile, starting at Fri Feb  5 12:14:33 2016

Finished reading infile at Fri Feb  5 12:14:33 2016

Reading input took 0.0000000000 seconds.
Finished filtering, writing output starting at Fri Feb  5 12:14:33 2016

Completed after 0.0000000000 seconds.
Finished successfully finished at Fri Feb  5 12:14:33 2016

This process (25227) memory usage: 
------------------------------------------
------------------------------------------

RemoveSubsets:
---------------
Input file:                                  /Users/joachim/repos/neosim/unittest/controlRun/trackletsPurified/59605.tracklets.purified
Output file:                                 /Users/joachim/repos/neosim/unittest/controlRun/trackletsFinal/59605.tracklets.final
RemoveSubsets:                               false
Short-circuit if possible:                   true
Sort sets by size before set intersection:   false
Keep only longest tracklet(s) per detection: false
Reading infile, starting at Fri Feb  5 12:14:33 2016

Finished reading infile at Fri Feb  5 12:14:33 2016

Reading input took 0.0000000000 seconds.
Finished filtering, writing output starting at Fri Feb  5 12:14:33 2016

Completed after 0.0000000000 seconds.
Finished successfully finished at Fri Feb  5 12:14:33 2016

This process (25229) memory usage: 
------------------------------------------
------------------------------------------

RemoveSubsets:
---------------
Input file:                                  /Users/joachim/repos/neosim/unittest/controlRun/trackletsPurified/59606.tracklets.purified
Output file:                                 /Users/joachim/repos/neosim/unittest/controlRun/trackletsFinal/59606.tracklets.final
RemoveSubsets:                               false
Short-circuit if possible:                   true
Sort sets by size before set intersection:   false
Keep only longest tracklet(s) per detection: false
Reading infile, starting at Fri Feb  5 12:14:33 2016

Finished reading infile at Fri Feb  5 12:14:33 2016

Reading input took 0.0000000000 seconds.
Finished filtering, writing output starting at Fri Feb  5 12:14:33 2016

Completed after 0.0000000000 seconds.
Finished successfully finished at Fri Feb  5 12:14:33 2016

This process (25231) memory usage: 
------------------------------------------
------------------------------------------

RemoveSubsets:
---------------
Input file:                                  /Users/joachim/repos/neosim/unittest/controlRun/trackletsPurified/59607.tracklets.purified
Output file:                                 /Users/joachim/repos/neosim/unittest/controlRun/trackletsFinal/59607.tracklets.final
RemoveSubsets:                               false
Short-circuit if possible:                   true
Sort sets by size before set intersection:   false
Keep only longest tracklet(s) per detection: false
Reading infile, starting at Fri Feb  5 12:14:33 2016

Finished reading infile at Fri Feb  5 12:14:33 2016

Reading input took 0.0000000000 seconds.
Finished filtering, writing output starting at Fri Feb  5 12:14:33 2016

Completed after 0.0000000000 seconds.
Finished successfully finished at Fri Feb  5 12:14:33 2016

This process (25233) memory usage: 
------------------------------------------
------------------------------------------

RemoveSubsets:
---------------
Input file:                                  /Users/joachim/repos/neosim/unittest/controlRun/trackletsPurified/59608.tracklets.purified
Output file:                                 /Users/joachim/repos/neosim/unittest/controlRun/trackletsFinal/59608.tracklets.final
RemoveSubsets:                               false
Short-circuit if possible:                   true
Sort sets by size before set intersection:   false
Keep only longest tracklet(s) per detection: false
Reading infile, starting at Fri Feb  5 12:14:33 2016

Finished reading infile at Fri Feb  5 12:14:33 2016

Reading input took 0.0000000000 seconds.
Finished filtering, writing output starting at Fri Feb  5 12:14:33 2016

Completed after 0.0000000000 seconds.
Finished successfully finished at Fri Feb  5 12:14:33 2016

This process (25235) memory usage: 
------------------------------------------
------------------------------------------

RemoveSubsets:
---------------
Input file:                                  /Users/joachim/repos/neosim/unittest/controlRun/trackletsPurified/59609.tracklets.purified
Output file:                                 /Users/joachim/repos/neosim/unittest/controlRun/trackletsFinal/59609.tracklets.final
RemoveSubsets:                               false
Short-circuit if possible:                   true
Sort sets by size before set intersection:   false
Keep only longest tracklet(s) per detection: false
Reading infile, starting at Fri Feb  5 12:14:33 2016

Finished reading infile at Fri Feb  5 12:14:33 2016

Reading input took 0.0000000000 seconds.
Finished filtering, writing output starting at Fri Feb  5 12:14:33 2016

Completed after 0.0000000000 seconds.
Finished successfully finished at Fri Feb  5 12:14:33 2016

This process (25237) memory usage: 
------------------------------------------
------------------------------------------

