RemoveSubsets:
---------------
Input file:                                  unittest/controlRun/source3/tracks/night_59580_through_59595.track
Output file:                                 unittest/controlRun/source3/tracksFinal/night_59580_through_59595.track.final
RemoveSubsets:                               true
Short-circuit if possible:                   true
Sort sets by size before set intersection:   false
Keep only longest tracklet(s) per detection: true
Reading infile, starting at Fri Feb 19 10:57:45 2016

Finished reading infile at Fri Feb 19 10:57:45 2016

Reading input took 0.0000000000 seconds.
Building detection-to-track map, starting at Fri Feb 19 10:57:45 2016

Finished detection-to-track map, filtering tracks starting at Fri Feb 19 10:57:45 2016

Finished filtering, writing output starting at Fri Feb 19 10:57:45 2016

Completed after 0.0000000000 seconds.
Finished successfully finished at Fri Feb 19 10:57:45 2016

This process (20591) memory usage: 
------------------------------------------
------------------------------------------

RemoveSubsets:
---------------
Input file:                                  unittest/controlRun/source3/tracks/night_59581_through_59596.track
Output file:                                 unittest/controlRun/source3/tracksFinal/night_59581_through_59596.track.final
RemoveSubsets:                               true
Short-circuit if possible:                   true
Sort sets by size before set intersection:   false
Keep only longest tracklet(s) per detection: true
Reading infile, starting at Fri Feb 19 10:57:45 2016

Finished reading infile at Fri Feb 19 10:57:45 2016

Reading input took 0.0000000000 seconds.
Building detection-to-track map, starting at Fri Feb 19 10:57:45 2016

Finished detection-to-track map, filtering tracks starting at Fri Feb 19 10:57:45 2016

Finished filtering, writing output starting at Fri Feb 19 10:57:45 2016

Completed after 0.0000000000 seconds.
Finished successfully finished at Fri Feb 19 10:57:45 2016

This process (20593) memory usage: 
------------------------------------------
------------------------------------------

RemoveSubsets:
---------------
Input file:                                  unittest/controlRun/source3/tracks/night_59582_through_59597.track
Output file:                                 unittest/controlRun/source3/tracksFinal/night_59582_through_59597.track.final
RemoveSubsets:                               true
Short-circuit if possible:                   true
Sort sets by size before set intersection:   false
Keep only longest tracklet(s) per detection: true
Reading infile, starting at Fri Feb 19 10:57:45 2016

Finished reading infile at Fri Feb 19 10:57:45 2016

Reading input took 0.0000000000 seconds.
Building detection-to-track map, starting at Fri Feb 19 10:57:45 2016

Finished detection-to-track map, filtering tracks starting at Fri Feb 19 10:57:45 2016

Finished filtering, writing output starting at Fri Feb 19 10:57:45 2016

Completed after 0.0000000000 seconds.
Finished successfully finished at Fri Feb 19 10:57:45 2016

This process (20595) memory usage: 
------------------------------------------
------------------------------------------

RemoveSubsets:
---------------
Input file:                                  unittest/controlRun/source3/tracks/night_59583_through_59598.track
Output file:                                 unittest/controlRun/source3/tracksFinal/night_59583_through_59598.track.final
RemoveSubsets:                               true
Short-circuit if possible:                   true
Sort sets by size before set intersection:   false
Keep only longest tracklet(s) per detection: true
Reading infile, starting at Fri Feb 19 10:57:45 2016

Finished reading infile at Fri Feb 19 10:57:45 2016

Reading input took 0.0000000000 seconds.
Building detection-to-track map, starting at Fri Feb 19 10:57:45 2016

Finished detection-to-track map, filtering tracks starting at Fri Feb 19 10:57:45 2016

Finished filtering, writing output starting at Fri Feb 19 10:57:45 2016

Completed after 0.0000000000 seconds.
Finished successfully finished at Fri Feb 19 10:57:45 2016

This process (20597) memory usage: 
------------------------------------------
------------------------------------------

RemoveSubsets:
---------------
Input file:                                  unittest/controlRun/source3/tracks/night_59584_through_59599.track
Output file:                                 unittest/controlRun/source3/tracksFinal/night_59584_through_59599.track.final
RemoveSubsets:                               true
Short-circuit if possible:                   true
Sort sets by size before set intersection:   false
Keep only longest tracklet(s) per detection: true
Reading infile, starting at Fri Feb 19 10:57:45 2016

Finished reading infile at Fri Feb 19 10:57:45 2016

Reading input took 0.0000000000 seconds.
Building detection-to-track map, starting at Fri Feb 19 10:57:45 2016

Finished detection-to-track map, filtering tracks starting at Fri Feb 19 10:57:45 2016

Finished filtering, writing output starting at Fri Feb 19 10:57:45 2016

Completed after 0.0000000000 seconds.
Finished successfully finished at Fri Feb 19 10:57:45 2016

This process (20599) memory usage: 
------------------------------------------
------------------------------------------

RemoveSubsets:
---------------
Input file:                                  unittest/controlRun/source3/tracks/night_59585_through_59600.track
Output file:                                 unittest/controlRun/source3/tracksFinal/night_59585_through_59600.track.final
RemoveSubsets:                               true
Short-circuit if possible:                   true
Sort sets by size before set intersection:   false
Keep only longest tracklet(s) per detection: true
Reading infile, starting at Fri Feb 19 10:57:45 2016

Finished reading infile at Fri Feb 19 10:57:45 2016

Reading input took 0.0000000000 seconds.
Building detection-to-track map, starting at Fri Feb 19 10:57:45 2016

Finished detection-to-track map, filtering tracks starting at Fri Feb 19 10:57:45 2016

Finished filtering, writing output starting at Fri Feb 19 10:57:45 2016

Completed after 0.0000000000 seconds.
Finished successfully finished at Fri Feb 19 10:57:45 2016

This process (20601) memory usage: 
------------------------------------------
------------------------------------------

RemoveSubsets:
---------------
Input file:                                  unittest/controlRun/source3/tracks/night_59586_through_59601.track
Output file:                                 unittest/controlRun/source3/tracksFinal/night_59586_through_59601.track.final
RemoveSubsets:                               true
Short-circuit if possible:                   true
Sort sets by size before set intersection:   false
Keep only longest tracklet(s) per detection: true
Reading infile, starting at Fri Feb 19 10:57:45 2016

Finished reading infile at Fri Feb 19 10:57:45 2016

Reading input took 0.0000000000 seconds.
Building detection-to-track map, starting at Fri Feb 19 10:57:45 2016

Finished detection-to-track map, filtering tracks starting at Fri Feb 19 10:57:45 2016

Finished filtering, writing output starting at Fri Feb 19 10:57:45 2016

Completed after 0.0000000000 seconds.
Finished successfully finished at Fri Feb 19 10:57:45 2016

This process (20603) memory usage: 
------------------------------------------
------------------------------------------

RemoveSubsets:
---------------
Input file:                                  unittest/controlRun/source3/tracks/night_59587_through_59602.track
Output file:                                 unittest/controlRun/source3/tracksFinal/night_59587_through_59602.track.final
RemoveSubsets:                               true
Short-circuit if possible:                   true
Sort sets by size before set intersection:   false
Keep only longest tracklet(s) per detection: true
Reading infile, starting at Fri Feb 19 10:57:45 2016

Finished reading infile at Fri Feb 19 10:57:45 2016

Reading input took 0.0000000000 seconds.
Building detection-to-track map, starting at Fri Feb 19 10:57:45 2016

Finished detection-to-track map, filtering tracks starting at Fri Feb 19 10:57:45 2016

Finished filtering, writing output starting at Fri Feb 19 10:57:45 2016

Completed after 0.0000000000 seconds.
Finished successfully finished at Fri Feb 19 10:57:45 2016

This process (20605) memory usage: 
------------------------------------------
------------------------------------------

RemoveSubsets:
---------------
Input file:                                  unittest/controlRun/source3/tracks/night_59588_through_59603.track
Output file:                                 unittest/controlRun/source3/tracksFinal/night_59588_through_59603.track.final
RemoveSubsets:                               true
Short-circuit if possible:                   true
Sort sets by size before set intersection:   false
Keep only longest tracklet(s) per detection: true
Reading infile, starting at Fri Feb 19 10:57:45 2016

Finished reading infile at Fri Feb 19 10:57:45 2016

Reading input took 0.0000000000 seconds.
Building detection-to-track map, starting at Fri Feb 19 10:57:45 2016

Finished detection-to-track map, filtering tracks starting at Fri Feb 19 10:57:45 2016

Finished filtering, writing output starting at Fri Feb 19 10:57:45 2016

Completed after 0.0000000000 seconds.
Finished successfully finished at Fri Feb 19 10:57:45 2016

This process (20607) memory usage: 
------------------------------------------
------------------------------------------

RemoveSubsets:
---------------
Input file:                                  unittest/controlRun/source3/tracks/night_59589_through_59604.track
Output file:                                 unittest/controlRun/source3/tracksFinal/night_59589_through_59604.track.final
RemoveSubsets:                               true
Short-circuit if possible:                   true
Sort sets by size before set intersection:   false
Keep only longest tracklet(s) per detection: true
Reading infile, starting at Fri Feb 19 10:57:45 2016

Finished reading infile at Fri Feb 19 10:57:45 2016

Reading input took 0.0000000000 seconds.
Building detection-to-track map, starting at Fri Feb 19 10:57:45 2016

Finished detection-to-track map, filtering tracks starting at Fri Feb 19 10:57:45 2016

Finished filtering, writing output starting at Fri Feb 19 10:57:45 2016

Completed after 0.0000000000 seconds.
Finished successfully finished at Fri Feb 19 10:57:45 2016

This process (20609) memory usage: 
------------------------------------------
------------------------------------------

RemoveSubsets:
---------------
Input file:                                  unittest/controlRun/source3/tracks/night_59590_through_59605.track
Output file:                                 unittest/controlRun/source3/tracksFinal/night_59590_through_59605.track.final
RemoveSubsets:                               true
Short-circuit if possible:                   true
Sort sets by size before set intersection:   false
Keep only longest tracklet(s) per detection: true
Reading infile, starting at Fri Feb 19 10:57:45 2016

Finished reading infile at Fri Feb 19 10:57:45 2016

Reading input took 0.0000000000 seconds.
Building detection-to-track map, starting at Fri Feb 19 10:57:45 2016

Finished detection-to-track map, filtering tracks starting at Fri Feb 19 10:57:45 2016

Finished filtering, writing output starting at Fri Feb 19 10:57:45 2016

Completed after 0.0000000000 seconds.
Finished successfully finished at Fri Feb 19 10:57:45 2016

This process (20611) memory usage: 
------------------------------------------
------------------------------------------

RemoveSubsets:
---------------
Input file:                                  unittest/controlRun/source3/tracks/night_59591_through_59606.track
Output file:                                 unittest/controlRun/source3/tracksFinal/night_59591_through_59606.track.final
RemoveSubsets:                               true
Short-circuit if possible:                   true
Sort sets by size before set intersection:   false
Keep only longest tracklet(s) per detection: true
Reading infile, starting at Fri Feb 19 10:57:45 2016

Finished reading infile at Fri Feb 19 10:57:45 2016

Reading input took 0.0000000000 seconds.
Building detection-to-track map, starting at Fri Feb 19 10:57:45 2016

Finished detection-to-track map, filtering tracks starting at Fri Feb 19 10:57:45 2016

Finished filtering, writing output starting at Fri Feb 19 10:57:45 2016

Completed after 0.0000000000 seconds.
Finished successfully finished at Fri Feb 19 10:57:45 2016

This process (20613) memory usage: 
------------------------------------------
------------------------------------------

RemoveSubsets:
---------------
Input file:                                  unittest/controlRun/source3/tracks/night_59592_through_59607.track
Output file:                                 unittest/controlRun/source3/tracksFinal/night_59592_through_59607.track.final
RemoveSubsets:                               true
Short-circuit if possible:                   true
Sort sets by size before set intersection:   false
Keep only longest tracklet(s) per detection: true
Reading infile, starting at Fri Feb 19 10:57:45 2016

Finished reading infile at Fri Feb 19 10:57:45 2016

Reading input took 0.0000000000 seconds.
Building detection-to-track map, starting at Fri Feb 19 10:57:45 2016

Finished detection-to-track map, filtering tracks starting at Fri Feb 19 10:57:45 2016

Finished filtering, writing output starting at Fri Feb 19 10:57:45 2016

Completed after 0.0000000000 seconds.
Finished successfully finished at Fri Feb 19 10:57:45 2016

This process (20615) memory usage: 
------------------------------------------
------------------------------------------

RemoveSubsets:
---------------
Input file:                                  unittest/controlRun/source3/tracks/night_59593_through_59608.track
Output file:                                 unittest/controlRun/source3/tracksFinal/night_59593_through_59608.track.final
RemoveSubsets:                               true
Short-circuit if possible:                   true
Sort sets by size before set intersection:   false
Keep only longest tracklet(s) per detection: true
Reading infile, starting at Fri Feb 19 10:57:45 2016

Finished reading infile at Fri Feb 19 10:57:45 2016

Reading input took 0.0000000000 seconds.
Building detection-to-track map, starting at Fri Feb 19 10:57:45 2016

Finished detection-to-track map, filtering tracks starting at Fri Feb 19 10:57:45 2016

Finished filtering, writing output starting at Fri Feb 19 10:57:45 2016

Completed after 0.0000000000 seconds.
Finished successfully finished at Fri Feb 19 10:57:45 2016

This process (20617) memory usage: 
------------------------------------------
------------------------------------------

RemoveSubsets:
---------------
Input file:                                  unittest/controlRun/source3/tracks/night_59594_through_59609.track
Output file:                                 unittest/controlRun/source3/tracksFinal/night_59594_through_59609.track.final
RemoveSubsets:                               true
Short-circuit if possible:                   true
Sort sets by size before set intersection:   false
Keep only longest tracklet(s) per detection: true
Reading infile, starting at Fri Feb 19 10:57:45 2016

Finished reading infile at Fri Feb 19 10:57:45 2016

Reading input took 0.0000000000 seconds.
Building detection-to-track map, starting at Fri Feb 19 10:57:45 2016

Finished detection-to-track map, filtering tracks starting at Fri Feb 19 10:57:45 2016

Finished filtering, writing output starting at Fri Feb 19 10:57:45 2016

Completed after 0.0000000000 seconds.
Finished successfully finished at Fri Feb 19 10:57:45 2016

This process (20619) memory usage: 
------------------------------------------
------------------------------------------

RemoveSubsets:
---------------
Input file:                                  unittest/controlRun/source3/tracks/night_59595_through_59609.track
Output file:                                 unittest/controlRun/source3/tracksFinal/night_59595_through_59609.track.final
RemoveSubsets:                               true
Short-circuit if possible:                   true
Sort sets by size before set intersection:   false
Keep only longest tracklet(s) per detection: true
Reading infile, starting at Fri Feb 19 10:57:45 2016

Finished reading infile at Fri Feb 19 10:57:45 2016

Reading input took 0.0000000000 seconds.
Building detection-to-track map, starting at Fri Feb 19 10:57:45 2016

Finished detection-to-track map, filtering tracks starting at Fri Feb 19 10:57:45 2016

Finished filtering, writing output starting at Fri Feb 19 10:57:45 2016

Completed after 0.0000000000 seconds.
Finished successfully finished at Fri Feb 19 10:57:45 2016

This process (20621) memory usage: 
------------------------------------------
------------------------------------------

RemoveSubsets:
---------------
Input file:                                  unittest/controlRun/source3/tracks/night_59596_through_59609.track
Output file:                                 unittest/controlRun/source3/tracksFinal/night_59596_through_59609.track.final
RemoveSubsets:                               true
Short-circuit if possible:                   true
Sort sets by size before set intersection:   false
Keep only longest tracklet(s) per detection: true
Reading infile, starting at Fri Feb 19 10:57:45 2016

Finished reading infile at Fri Feb 19 10:57:45 2016

Reading input took 0.0000000000 seconds.
Building detection-to-track map, starting at Fri Feb 19 10:57:45 2016

Finished detection-to-track map, filtering tracks starting at Fri Feb 19 10:57:45 2016

Finished filtering, writing output starting at Fri Feb 19 10:57:45 2016

Completed after 0.0000000000 seconds.
Finished successfully finished at Fri Feb 19 10:57:45 2016

This process (20623) memory usage: 
------------------------------------------
------------------------------------------

RemoveSubsets:
---------------
Input file:                                  unittest/controlRun/source3/tracks/night_59597_through_59609.track
Output file:                                 unittest/controlRun/source3/tracksFinal/night_59597_through_59609.track.final
RemoveSubsets:                               true
Short-circuit if possible:                   true
Sort sets by size before set intersection:   false
Keep only longest tracklet(s) per detection: true
Reading infile, starting at Fri Feb 19 10:57:45 2016

Finished reading infile at Fri Feb 19 10:57:45 2016

Reading input took 0.0000000000 seconds.
Building detection-to-track map, starting at Fri Feb 19 10:57:45 2016

Finished detection-to-track map, filtering tracks starting at Fri Feb 19 10:57:45 2016

Finished filtering, writing output starting at Fri Feb 19 10:57:45 2016

Completed after 0.0000000000 seconds.
Finished successfully finished at Fri Feb 19 10:57:45 2016

This process (20625) memory usage: 
------------------------------------------
------------------------------------------

RemoveSubsets:
---------------
Input file:                                  unittest/controlRun/source3/tracks/night_59598_through_59609.track
Output file:                                 unittest/controlRun/source3/tracksFinal/night_59598_through_59609.track.final
RemoveSubsets:                               true
Short-circuit if possible:                   true
Sort sets by size before set intersection:   false
Keep only longest tracklet(s) per detection: true
Reading infile, starting at Fri Feb 19 10:57:45 2016

Finished reading infile at Fri Feb 19 10:57:45 2016

Reading input took 0.0000000000 seconds.
Building detection-to-track map, starting at Fri Feb 19 10:57:45 2016

Finished detection-to-track map, filtering tracks starting at Fri Feb 19 10:57:45 2016

Finished filtering, writing output starting at Fri Feb 19 10:57:45 2016

Completed after 0.0000000000 seconds.
Finished successfully finished at Fri Feb 19 10:57:45 2016

This process (20627) memory usage: 
------------------------------------------
------------------------------------------

RemoveSubsets:
---------------
Input file:                                  unittest/controlRun/source3/tracks/night_59599_through_59609.track
Output file:                                 unittest/controlRun/source3/tracksFinal/night_59599_through_59609.track.final
RemoveSubsets:                               true
Short-circuit if possible:                   true
Sort sets by size before set intersection:   false
Keep only longest tracklet(s) per detection: true
Reading infile, starting at Fri Feb 19 10:57:45 2016

Finished reading infile at Fri Feb 19 10:57:45 2016

Reading input took 0.0000000000 seconds.
Building detection-to-track map, starting at Fri Feb 19 10:57:45 2016

Finished detection-to-track map, filtering tracks starting at Fri Feb 19 10:57:45 2016

Finished filtering, writing output starting at Fri Feb 19 10:57:45 2016

Completed after 0.0000000000 seconds.
Finished successfully finished at Fri Feb 19 10:57:45 2016

This process (20629) memory usage: 
------------------------------------------
------------------------------------------

RemoveSubsets:
---------------
Input file:                                  unittest/controlRun/source3/tracks/night_59600_through_59609.track
Output file:                                 unittest/controlRun/source3/tracksFinal/night_59600_through_59609.track.final
RemoveSubsets:                               true
Short-circuit if possible:                   true
Sort sets by size before set intersection:   false
Keep only longest tracklet(s) per detection: true
Reading infile, starting at Fri Feb 19 10:57:45 2016

Finished reading infile at Fri Feb 19 10:57:45 2016

Reading input took 0.0000000000 seconds.
Building detection-to-track map, starting at Fri Feb 19 10:57:45 2016

Finished detection-to-track map, filtering tracks starting at Fri Feb 19 10:57:45 2016

Finished filtering, writing output starting at Fri Feb 19 10:57:45 2016

Completed after 0.0000000000 seconds.
Finished successfully finished at Fri Feb 19 10:57:45 2016

This process (20631) memory usage: 
------------------------------------------
------------------------------------------

RemoveSubsets:
---------------
Input file:                                  unittest/controlRun/source3/tracks/night_59601_through_59609.track
Output file:                                 unittest/controlRun/source3/tracksFinal/night_59601_through_59609.track.final
RemoveSubsets:                               true
Short-circuit if possible:                   true
Sort sets by size before set intersection:   false
Keep only longest tracklet(s) per detection: true
Reading infile, starting at Fri Feb 19 10:57:45 2016

Finished reading infile at Fri Feb 19 10:57:45 2016

Reading input took 0.0000000000 seconds.
Building detection-to-track map, starting at Fri Feb 19 10:57:45 2016

Finished detection-to-track map, filtering tracks starting at Fri Feb 19 10:57:45 2016

Finished filtering, writing output starting at Fri Feb 19 10:57:45 2016

Completed after 0.0000000000 seconds.
Finished successfully finished at Fri Feb 19 10:57:45 2016

This process (20633) memory usage: 
------------------------------------------
------------------------------------------

RemoveSubsets:
---------------
Input file:                                  unittest/controlRun/source3/tracks/night_59602_through_59609.track
Output file:                                 unittest/controlRun/source3/tracksFinal/night_59602_through_59609.track.final
RemoveSubsets:                               true
Short-circuit if possible:                   true
Sort sets by size before set intersection:   false
Keep only longest tracklet(s) per detection: true
Reading infile, starting at Fri Feb 19 10:57:45 2016

Finished reading infile at Fri Feb 19 10:57:45 2016

Reading input took 0.0000000000 seconds.
Building detection-to-track map, starting at Fri Feb 19 10:57:45 2016

Finished detection-to-track map, filtering tracks starting at Fri Feb 19 10:57:45 2016

Finished filtering, writing output starting at Fri Feb 19 10:57:45 2016

Completed after 0.0000000000 seconds.
Finished successfully finished at Fri Feb 19 10:57:45 2016

This process (20635) memory usage: 
------------------------------------------
------------------------------------------

RemoveSubsets:
---------------
Input file:                                  unittest/controlRun/source3/tracks/night_59603_through_59609.track
Output file:                                 unittest/controlRun/source3/tracksFinal/night_59603_through_59609.track.final
RemoveSubsets:                               true
Short-circuit if possible:                   true
Sort sets by size before set intersection:   false
Keep only longest tracklet(s) per detection: true
Reading infile, starting at Fri Feb 19 10:57:45 2016

Finished reading infile at Fri Feb 19 10:57:45 2016

Reading input took 0.0000000000 seconds.
Building detection-to-track map, starting at Fri Feb 19 10:57:45 2016

Finished detection-to-track map, filtering tracks starting at Fri Feb 19 10:57:45 2016

Finished filtering, writing output starting at Fri Feb 19 10:57:45 2016

Completed after 0.0000000000 seconds.
Finished successfully finished at Fri Feb 19 10:57:45 2016

This process (20637) memory usage: 
------------------------------------------
------------------------------------------

RemoveSubsets:
---------------
Input file:                                  unittest/controlRun/source3/tracks/night_59604_through_59609.track
Output file:                                 unittest/controlRun/source3/tracksFinal/night_59604_through_59609.track.final
RemoveSubsets:                               true
Short-circuit if possible:                   true
Sort sets by size before set intersection:   false
Keep only longest tracklet(s) per detection: true
Reading infile, starting at Fri Feb 19 10:57:45 2016

Finished reading infile at Fri Feb 19 10:57:45 2016

Reading input took 0.0000000000 seconds.
Building detection-to-track map, starting at Fri Feb 19 10:57:45 2016

Finished detection-to-track map, filtering tracks starting at Fri Feb 19 10:57:45 2016

Finished filtering, writing output starting at Fri Feb 19 10:57:45 2016

Completed after 0.0000000000 seconds.
Finished successfully finished at Fri Feb 19 10:57:45 2016

This process (20639) memory usage: 
------------------------------------------
------------------------------------------

RemoveSubsets:
---------------
Input file:                                  unittest/controlRun/source3/tracks/night_59605_through_59609.track
Output file:                                 unittest/controlRun/source3/tracksFinal/night_59605_through_59609.track.final
RemoveSubsets:                               true
Short-circuit if possible:                   true
Sort sets by size before set intersection:   false
Keep only longest tracklet(s) per detection: true
Reading infile, starting at Fri Feb 19 10:57:45 2016

Finished reading infile at Fri Feb 19 10:57:45 2016

Reading input took 0.0000000000 seconds.
Building detection-to-track map, starting at Fri Feb 19 10:57:45 2016

Finished detection-to-track map, filtering tracks starting at Fri Feb 19 10:57:45 2016

Finished filtering, writing output starting at Fri Feb 19 10:57:45 2016

Completed after 0.0000000000 seconds.
Finished successfully finished at Fri Feb 19 10:57:45 2016

This process (20641) memory usage: 
------------------------------------------
------------------------------------------

RemoveSubsets:
---------------
Input file:                                  unittest/controlRun/source3/tracks/night_59606_through_59609.track
Output file:                                 unittest/controlRun/source3/tracksFinal/night_59606_through_59609.track.final
RemoveSubsets:                               true
Short-circuit if possible:                   true
Sort sets by size before set intersection:   false
Keep only longest tracklet(s) per detection: true
Reading infile, starting at Fri Feb 19 10:57:45 2016

Finished reading infile at Fri Feb 19 10:57:45 2016

Reading input took 0.0000000000 seconds.
Building detection-to-track map, starting at Fri Feb 19 10:57:45 2016

Finished detection-to-track map, filtering tracks starting at Fri Feb 19 10:57:45 2016

Finished filtering, writing output starting at Fri Feb 19 10:57:45 2016

Completed after 0.0000000000 seconds.
Finished successfully finished at Fri Feb 19 10:57:45 2016

This process (20643) memory usage: 
------------------------------------------
------------------------------------------

RemoveSubsets:
---------------
Input file:                                  unittest/controlRun/source3/tracks/night_59607_through_59609.track
Output file:                                 unittest/controlRun/source3/tracksFinal/night_59607_through_59609.track.final
RemoveSubsets:                               true
Short-circuit if possible:                   true
Sort sets by size before set intersection:   false
Keep only longest tracklet(s) per detection: true
Reading infile, starting at Fri Feb 19 10:57:45 2016

Finished reading infile at Fri Feb 19 10:57:45 2016

Reading input took 0.0000000000 seconds.
Building detection-to-track map, starting at Fri Feb 19 10:57:45 2016

Finished detection-to-track map, filtering tracks starting at Fri Feb 19 10:57:45 2016

Finished filtering, writing output starting at Fri Feb 19 10:57:45 2016

Completed after 0.0000000000 seconds.
Finished successfully finished at Fri Feb 19 10:57:45 2016

This process (20645) memory usage: 
------------------------------------------
------------------------------------------

