RemoveSubsets:
---------------
Input file:                                  /Users/joachim/repos/neosim/example/run/trackletsPurified/59580.tracklets.purified
Output file:                                 /Users/joachim/repos/neosim/example/run/trackletsFinal/59580.tracklets.final
RemoveSubsets:                               false
Short-circuit if possible:                   true
Sort sets by size before set intersection:   false
Keep only longest tracklet(s) per detection: false
Reading infile, starting at Wed Mar 29 13:14:30 2017

Finished reading infile at Wed Mar 29 13:14:30 2017

Reading input took 0.0000000000 seconds.
Finished filtering, writing output starting at Wed Mar 29 13:14:30 2017

Completed after 0.0000000000 seconds.
Finished successfully finished at Wed Mar 29 13:14:30 2017

This process (13184) memory usage: 
------------------------------------------
------------------------------------------

RemoveSubsets:
---------------
Input file:                                  /Users/joachim/repos/neosim/example/run/trackletsPurified/59581.tracklets.purified
Output file:                                 /Users/joachim/repos/neosim/example/run/trackletsFinal/59581.tracklets.final
RemoveSubsets:                               false
Short-circuit if possible:                   true
Sort sets by size before set intersection:   false
Keep only longest tracklet(s) per detection: false
Reading infile, starting at Wed Mar 29 13:14:30 2017

Finished reading infile at Wed Mar 29 13:14:30 2017

Reading input took 0.0000000000 seconds.
Finished filtering, writing output starting at Wed Mar 29 13:14:30 2017

Completed after 0.0000000000 seconds.
Finished successfully finished at Wed Mar 29 13:14:30 2017

This process (13186) memory usage: 
------------------------------------------
------------------------------------------

RemoveSubsets:
---------------
Input file:                                  /Users/joachim/repos/neosim/example/run/trackletsPurified/59582.tracklets.purified
Output file:                                 /Users/joachim/repos/neosim/example/run/trackletsFinal/59582.tracklets.final
RemoveSubsets:                               false
Short-circuit if possible:                   true
Sort sets by size before set intersection:   false
Keep only longest tracklet(s) per detection: false
Reading infile, starting at Wed Mar 29 13:14:30 2017

Finished reading infile at Wed Mar 29 13:14:30 2017

Reading input took 0.0000000000 seconds.
Finished filtering, writing output starting at Wed Mar 29 13:14:30 2017

Completed after 0.0000000000 seconds.
Finished successfully finished at Wed Mar 29 13:14:30 2017

This process (13188) memory usage: 
------------------------------------------
------------------------------------------

RemoveSubsets:
---------------
Input file:                                  /Users/joachim/repos/neosim/example/run/trackletsPurified/59583.tracklets.purified
Output file:                                 /Users/joachim/repos/neosim/example/run/trackletsFinal/59583.tracklets.final
RemoveSubsets:                               false
Short-circuit if possible:                   true
Sort sets by size before set intersection:   false
Keep only longest tracklet(s) per detection: false
Reading infile, starting at Wed Mar 29 13:14:30 2017

Finished reading infile at Wed Mar 29 13:14:30 2017

Reading input took 0.0000000000 seconds.
Finished filtering, writing output starting at Wed Mar 29 13:14:30 2017

Completed after 0.0000000000 seconds.
Finished successfully finished at Wed Mar 29 13:14:30 2017

This process (13190) memory usage: 
------------------------------------------
------------------------------------------

RemoveSubsets:
---------------
Input file:                                  /Users/joachim/repos/neosim/example/run/trackletsPurified/59584.tracklets.purified
Output file:                                 /Users/joachim/repos/neosim/example/run/trackletsFinal/59584.tracklets.final
RemoveSubsets:                               false
Short-circuit if possible:                   true
Sort sets by size before set intersection:   false
Keep only longest tracklet(s) per detection: false
Reading infile, starting at Wed Mar 29 13:14:30 2017

Finished reading infile at Wed Mar 29 13:14:30 2017

Reading input took 0.0000000000 seconds.
Finished filtering, writing output starting at Wed Mar 29 13:14:30 2017

Completed after 0.0000000000 seconds.
Finished successfully finished at Wed Mar 29 13:14:30 2017

This process (13192) memory usage: 
------------------------------------------
------------------------------------------

RemoveSubsets:
---------------
Input file:                                  /Users/joachim/repos/neosim/example/run/trackletsPurified/59585.tracklets.purified
Output file:                                 /Users/joachim/repos/neosim/example/run/trackletsFinal/59585.tracklets.final
RemoveSubsets:                               false
Short-circuit if possible:                   true
Sort sets by size before set intersection:   false
Keep only longest tracklet(s) per detection: false
Reading infile, starting at Wed Mar 29 13:14:30 2017

Finished reading infile at Wed Mar 29 13:14:30 2017

Reading input took 0.0000000000 seconds.
Finished filtering, writing output starting at Wed Mar 29 13:14:30 2017

Completed after 0.0000000000 seconds.
Finished successfully finished at Wed Mar 29 13:14:30 2017

This process (13194) memory usage: 
------------------------------------------
------------------------------------------

RemoveSubsets:
---------------
Input file:                                  /Users/joachim/repos/neosim/example/run/trackletsPurified/59586.tracklets.purified
Output file:                                 /Users/joachim/repos/neosim/example/run/trackletsFinal/59586.tracklets.final
RemoveSubsets:                               false
Short-circuit if possible:                   true
Sort sets by size before set intersection:   false
Keep only longest tracklet(s) per detection: false
Reading infile, starting at Wed Mar 29 13:14:30 2017

Finished reading infile at Wed Mar 29 13:14:30 2017

Reading input took 0.0000000000 seconds.
Finished filtering, writing output starting at Wed Mar 29 13:14:30 2017

Completed after 0.0000000000 seconds.
Finished successfully finished at Wed Mar 29 13:14:30 2017

This process (13196) memory usage: 
------------------------------------------
------------------------------------------

RemoveSubsets:
---------------
Input file:                                  /Users/joachim/repos/neosim/example/run/trackletsPurified/59587.tracklets.purified
Output file:                                 /Users/joachim/repos/neosim/example/run/trackletsFinal/59587.tracklets.final
RemoveSubsets:                               false
Short-circuit if possible:                   true
Sort sets by size before set intersection:   false
Keep only longest tracklet(s) per detection: false
Reading infile, starting at Wed Mar 29 13:14:30 2017

Finished reading infile at Wed Mar 29 13:14:30 2017

Reading input took 0.0000000000 seconds.
Finished filtering, writing output starting at Wed Mar 29 13:14:30 2017

Completed after 0.0000000000 seconds.
Finished successfully finished at Wed Mar 29 13:14:30 2017

This process (13198) memory usage: 
------------------------------------------
------------------------------------------

RemoveSubsets:
---------------
Input file:                                  /Users/joachim/repos/neosim/example/run/trackletsPurified/59588.tracklets.purified
Output file:                                 /Users/joachim/repos/neosim/example/run/trackletsFinal/59588.tracklets.final
RemoveSubsets:                               false
Short-circuit if possible:                   true
Sort sets by size before set intersection:   false
Keep only longest tracklet(s) per detection: false
Reading infile, starting at Wed Mar 29 13:14:30 2017

Finished reading infile at Wed Mar 29 13:14:30 2017

Reading input took 0.0000000000 seconds.
Finished filtering, writing output starting at Wed Mar 29 13:14:30 2017

Completed after 0.0000000000 seconds.
Finished successfully finished at Wed Mar 29 13:14:30 2017

This process (13200) memory usage: 
------------------------------------------
------------------------------------------

RemoveSubsets:
---------------
Input file:                                  /Users/joachim/repos/neosim/example/run/trackletsPurified/59589.tracklets.purified
Output file:                                 /Users/joachim/repos/neosim/example/run/trackletsFinal/59589.tracklets.final
RemoveSubsets:                               false
Short-circuit if possible:                   true
Sort sets by size before set intersection:   false
Keep only longest tracklet(s) per detection: false
Reading infile, starting at Wed Mar 29 13:14:30 2017

Finished reading infile at Wed Mar 29 13:14:30 2017

Reading input took 0.0000000000 seconds.
Finished filtering, writing output starting at Wed Mar 29 13:14:30 2017

Completed after 0.0000000000 seconds.
Finished successfully finished at Wed Mar 29 13:14:30 2017

This process (13202) memory usage: 
------------------------------------------
------------------------------------------

RemoveSubsets:
---------------
Input file:                                  /Users/joachim/repos/neosim/example/run/trackletsPurified/59590.tracklets.purified
Output file:                                 /Users/joachim/repos/neosim/example/run/trackletsFinal/59590.tracklets.final
RemoveSubsets:                               false
Short-circuit if possible:                   true
Sort sets by size before set intersection:   false
Keep only longest tracklet(s) per detection: false
Reading infile, starting at Wed Mar 29 13:14:30 2017

Finished reading infile at Wed Mar 29 13:14:30 2017

Reading input took 0.0000000000 seconds.
Finished filtering, writing output starting at Wed Mar 29 13:14:30 2017

Completed after 0.0000000000 seconds.
Finished successfully finished at Wed Mar 29 13:14:30 2017

This process (13204) memory usage: 
------------------------------------------
------------------------------------------

RemoveSubsets:
---------------
Input file:                                  /Users/joachim/repos/neosim/example/run/trackletsPurified/59591.tracklets.purified
Output file:                                 /Users/joachim/repos/neosim/example/run/trackletsFinal/59591.tracklets.final
RemoveSubsets:                               false
Short-circuit if possible:                   true
Sort sets by size before set intersection:   false
Keep only longest tracklet(s) per detection: false
Reading infile, starting at Wed Mar 29 13:14:30 2017

Finished reading infile at Wed Mar 29 13:14:30 2017

Reading input took 0.0000000000 seconds.
Finished filtering, writing output starting at Wed Mar 29 13:14:30 2017

Completed after 0.0000000000 seconds.
Finished successfully finished at Wed Mar 29 13:14:30 2017

This process (13206) memory usage: 
------------------------------------------
------------------------------------------

RemoveSubsets:
---------------
Input file:                                  /Users/joachim/repos/neosim/example/run/trackletsPurified/59592.tracklets.purified
Output file:                                 /Users/joachim/repos/neosim/example/run/trackletsFinal/59592.tracklets.final
RemoveSubsets:                               false
Short-circuit if possible:                   true
Sort sets by size before set intersection:   false
Keep only longest tracklet(s) per detection: false
Reading infile, starting at Wed Mar 29 13:14:30 2017

Finished reading infile at Wed Mar 29 13:14:30 2017

Reading input took 0.0000000000 seconds.
Finished filtering, writing output starting at Wed Mar 29 13:14:30 2017

Completed after 0.0000000000 seconds.
Finished successfully finished at Wed Mar 29 13:14:30 2017

This process (13208) memory usage: 
------------------------------------------
------------------------------------------

RemoveSubsets:
---------------
Input file:                                  /Users/joachim/repos/neosim/example/run/trackletsPurified/59593.tracklets.purified
Output file:                                 /Users/joachim/repos/neosim/example/run/trackletsFinal/59593.tracklets.final
RemoveSubsets:                               false
Short-circuit if possible:                   true
Sort sets by size before set intersection:   false
Keep only longest tracklet(s) per detection: false
Reading infile, starting at Wed Mar 29 13:14:30 2017

Finished reading infile at Wed Mar 29 13:14:30 2017

Reading input took 0.0000000000 seconds.
Finished filtering, writing output starting at Wed Mar 29 13:14:30 2017

Completed after 0.0000000000 seconds.
Finished successfully finished at Wed Mar 29 13:14:30 2017

This process (13210) memory usage: 
------------------------------------------
------------------------------------------

RemoveSubsets:
---------------
Input file:                                  /Users/joachim/repos/neosim/example/run/trackletsPurified/59594.tracklets.purified
Output file:                                 /Users/joachim/repos/neosim/example/run/trackletsFinal/59594.tracklets.final
RemoveSubsets:                               false
Short-circuit if possible:                   true
Sort sets by size before set intersection:   false
Keep only longest tracklet(s) per detection: false
Reading infile, starting at Wed Mar 29 13:14:30 2017

Finished reading infile at Wed Mar 29 13:14:30 2017

Reading input took 0.0000000000 seconds.
Finished filtering, writing output starting at Wed Mar 29 13:14:30 2017

Completed after 0.0000000000 seconds.
Finished successfully finished at Wed Mar 29 13:14:30 2017

This process (13212) memory usage: 
------------------------------------------
------------------------------------------

RemoveSubsets:
---------------
Input file:                                  /Users/joachim/repos/neosim/example/run/trackletsPurified/59595.tracklets.purified
Output file:                                 /Users/joachim/repos/neosim/example/run/trackletsFinal/59595.tracklets.final
RemoveSubsets:                               false
Short-circuit if possible:                   true
Sort sets by size before set intersection:   false
Keep only longest tracklet(s) per detection: false
Reading infile, starting at Wed Mar 29 13:14:30 2017

Finished reading infile at Wed Mar 29 13:14:30 2017

Reading input took 0.0000000000 seconds.
Finished filtering, writing output starting at Wed Mar 29 13:14:30 2017

Completed after 0.0000000000 seconds.
Finished successfully finished at Wed Mar 29 13:14:30 2017

This process (13214) memory usage: 
------------------------------------------
------------------------------------------

RemoveSubsets:
---------------
Input file:                                  /Users/joachim/repos/neosim/example/run/trackletsPurified/59596.tracklets.purified
Output file:                                 /Users/joachim/repos/neosim/example/run/trackletsFinal/59596.tracklets.final
RemoveSubsets:                               false
Short-circuit if possible:                   true
Sort sets by size before set intersection:   false
Keep only longest tracklet(s) per detection: false
Reading infile, starting at Wed Mar 29 13:14:30 2017

Finished reading infile at Wed Mar 29 13:14:30 2017

Reading input took 0.0000000000 seconds.
Finished filtering, writing output starting at Wed Mar 29 13:14:30 2017

Completed after 0.0000000000 seconds.
Finished successfully finished at Wed Mar 29 13:14:30 2017

This process (13216) memory usage: 
------------------------------------------
------------------------------------------

RemoveSubsets:
---------------
Input file:                                  /Users/joachim/repos/neosim/example/run/trackletsPurified/59597.tracklets.purified
Output file:                                 /Users/joachim/repos/neosim/example/run/trackletsFinal/59597.tracklets.final
RemoveSubsets:                               false
Short-circuit if possible:                   true
Sort sets by size before set intersection:   false
Keep only longest tracklet(s) per detection: false
Reading infile, starting at Wed Mar 29 13:14:30 2017

Finished reading infile at Wed Mar 29 13:14:30 2017

Reading input took 0.0000000000 seconds.
Finished filtering, writing output starting at Wed Mar 29 13:14:30 2017

Completed after 0.0000000000 seconds.
Finished successfully finished at Wed Mar 29 13:14:30 2017

This process (13218) memory usage: 
------------------------------------------
------------------------------------------

RemoveSubsets:
---------------
Input file:                                  /Users/joachim/repos/neosim/example/run/trackletsPurified/59598.tracklets.purified
Output file:                                 /Users/joachim/repos/neosim/example/run/trackletsFinal/59598.tracklets.final
RemoveSubsets:                               false
Short-circuit if possible:                   true
Sort sets by size before set intersection:   false
Keep only longest tracklet(s) per detection: false
Reading infile, starting at Wed Mar 29 13:14:30 2017

Finished reading infile at Wed Mar 29 13:14:30 2017

Reading input took 0.0000000000 seconds.
Finished filtering, writing output starting at Wed Mar 29 13:14:30 2017

Completed after 0.0000000000 seconds.
Finished successfully finished at Wed Mar 29 13:14:30 2017

This process (13220) memory usage: 
------------------------------------------
------------------------------------------

RemoveSubsets:
---------------
Input file:                                  /Users/joachim/repos/neosim/example/run/trackletsPurified/59599.tracklets.purified
Output file:                                 /Users/joachim/repos/neosim/example/run/trackletsFinal/59599.tracklets.final
RemoveSubsets:                               false
Short-circuit if possible:                   true
Sort sets by size before set intersection:   false
Keep only longest tracklet(s) per detection: false
Reading infile, starting at Wed Mar 29 13:14:30 2017

Finished reading infile at Wed Mar 29 13:14:30 2017

Reading input took 0.0000000000 seconds.
Finished filtering, writing output starting at Wed Mar 29 13:14:30 2017

Completed after 0.0000000000 seconds.
Finished successfully finished at Wed Mar 29 13:14:30 2017

This process (13222) memory usage: 
------------------------------------------
------------------------------------------

RemoveSubsets:
---------------
Input file:                                  /Users/joachim/repos/neosim/example/run/trackletsPurified/59600.tracklets.purified
Output file:                                 /Users/joachim/repos/neosim/example/run/trackletsFinal/59600.tracklets.final
RemoveSubsets:                               false
Short-circuit if possible:                   true
Sort sets by size before set intersection:   false
Keep only longest tracklet(s) per detection: false
Reading infile, starting at Wed Mar 29 13:14:30 2017

Finished reading infile at Wed Mar 29 13:14:30 2017

Reading input took 0.0000000000 seconds.
Finished filtering, writing output starting at Wed Mar 29 13:14:30 2017

Completed after 0.0000000000 seconds.
Finished successfully finished at Wed Mar 29 13:14:30 2017

This process (13224) memory usage: 
------------------------------------------
------------------------------------------

RemoveSubsets:
---------------
Input file:                                  /Users/joachim/repos/neosim/example/run/trackletsPurified/59601.tracklets.purified
Output file:                                 /Users/joachim/repos/neosim/example/run/trackletsFinal/59601.tracklets.final
RemoveSubsets:                               false
Short-circuit if possible:                   true
Sort sets by size before set intersection:   false
Keep only longest tracklet(s) per detection: false
Reading infile, starting at Wed Mar 29 13:14:30 2017

Finished reading infile at Wed Mar 29 13:14:30 2017

Reading input took 0.0000000000 seconds.
Finished filtering, writing output starting at Wed Mar 29 13:14:30 2017

Completed after 0.0000000000 seconds.
Finished successfully finished at Wed Mar 29 13:14:30 2017

This process (13226) memory usage: 
------------------------------------------
------------------------------------------

RemoveSubsets:
---------------
Input file:                                  /Users/joachim/repos/neosim/example/run/trackletsPurified/59602.tracklets.purified
Output file:                                 /Users/joachim/repos/neosim/example/run/trackletsFinal/59602.tracklets.final
RemoveSubsets:                               false
Short-circuit if possible:                   true
Sort sets by size before set intersection:   false
Keep only longest tracklet(s) per detection: false
Reading infile, starting at Wed Mar 29 13:14:30 2017

Finished reading infile at Wed Mar 29 13:14:30 2017

Reading input took 0.0000000000 seconds.
Finished filtering, writing output starting at Wed Mar 29 13:14:30 2017

Completed after 0.0000000000 seconds.
Finished successfully finished at Wed Mar 29 13:14:30 2017

This process (13228) memory usage: 
------------------------------------------
------------------------------------------

RemoveSubsets:
---------------
Input file:                                  /Users/joachim/repos/neosim/example/run/trackletsPurified/59603.tracklets.purified
Output file:                                 /Users/joachim/repos/neosim/example/run/trackletsFinal/59603.tracklets.final
RemoveSubsets:                               false
Short-circuit if possible:                   true
Sort sets by size before set intersection:   false
Keep only longest tracklet(s) per detection: false
Reading infile, starting at Wed Mar 29 13:14:30 2017

Finished reading infile at Wed Mar 29 13:14:30 2017

Reading input took 0.0000000000 seconds.
Finished filtering, writing output starting at Wed Mar 29 13:14:30 2017

Completed after 0.0000000000 seconds.
Finished successfully finished at Wed Mar 29 13:14:30 2017

This process (13230) memory usage: 
------------------------------------------
------------------------------------------

RemoveSubsets:
---------------
Input file:                                  /Users/joachim/repos/neosim/example/run/trackletsPurified/59604.tracklets.purified
Output file:                                 /Users/joachim/repos/neosim/example/run/trackletsFinal/59604.tracklets.final
RemoveSubsets:                               false
Short-circuit if possible:                   true
Sort sets by size before set intersection:   false
Keep only longest tracklet(s) per detection: false
Reading infile, starting at Wed Mar 29 13:14:30 2017

Finished reading infile at Wed Mar 29 13:14:30 2017

Reading input took 0.0000000000 seconds.
Finished filtering, writing output starting at Wed Mar 29 13:14:30 2017

Completed after 0.0000000000 seconds.
Finished successfully finished at Wed Mar 29 13:14:30 2017

This process (13232) memory usage: 
------------------------------------------
------------------------------------------

RemoveSubsets:
---------------
Input file:                                  /Users/joachim/repos/neosim/example/run/trackletsPurified/59605.tracklets.purified
Output file:                                 /Users/joachim/repos/neosim/example/run/trackletsFinal/59605.tracklets.final
RemoveSubsets:                               false
Short-circuit if possible:                   true
Sort sets by size before set intersection:   false
Keep only longest tracklet(s) per detection: false
Reading infile, starting at Wed Mar 29 13:14:30 2017

Finished reading infile at Wed Mar 29 13:14:30 2017

Reading input took 0.0000000000 seconds.
Finished filtering, writing output starting at Wed Mar 29 13:14:30 2017

Completed after 0.0000000000 seconds.
Finished successfully finished at Wed Mar 29 13:14:30 2017

This process (13234) memory usage: 
------------------------------------------
------------------------------------------

RemoveSubsets:
---------------
Input file:                                  /Users/joachim/repos/neosim/example/run/trackletsPurified/59606.tracklets.purified
Output file:                                 /Users/joachim/repos/neosim/example/run/trackletsFinal/59606.tracklets.final
RemoveSubsets:                               false
Short-circuit if possible:                   true
Sort sets by size before set intersection:   false
Keep only longest tracklet(s) per detection: false
Reading infile, starting at Wed Mar 29 13:14:30 2017

Finished reading infile at Wed Mar 29 13:14:30 2017

Reading input took 0.0000000000 seconds.
Finished filtering, writing output starting at Wed Mar 29 13:14:30 2017

Completed after 0.0000000000 seconds.
Finished successfully finished at Wed Mar 29 13:14:30 2017

This process (13236) memory usage: 
------------------------------------------
------------------------------------------

RemoveSubsets:
---------------
Input file:                                  /Users/joachim/repos/neosim/example/run/trackletsPurified/59607.tracklets.purified
Output file:                                 /Users/joachim/repos/neosim/example/run/trackletsFinal/59607.tracklets.final
RemoveSubsets:                               false
Short-circuit if possible:                   true
Sort sets by size before set intersection:   false
Keep only longest tracklet(s) per detection: false
Reading infile, starting at Wed Mar 29 13:14:31 2017

Finished reading infile at Wed Mar 29 13:14:31 2017

Reading input took 0.0000000000 seconds.
Finished filtering, writing output starting at Wed Mar 29 13:14:31 2017

Completed after 0.0000000000 seconds.
Finished successfully finished at Wed Mar 29 13:14:31 2017

This process (13238) memory usage: 
------------------------------------------
------------------------------------------

RemoveSubsets:
---------------
Input file:                                  /Users/joachim/repos/neosim/example/run/trackletsPurified/59608.tracklets.purified
Output file:                                 /Users/joachim/repos/neosim/example/run/trackletsFinal/59608.tracklets.final
RemoveSubsets:                               false
Short-circuit if possible:                   true
Sort sets by size before set intersection:   false
Keep only longest tracklet(s) per detection: false
Reading infile, starting at Wed Mar 29 13:14:31 2017

Finished reading infile at Wed Mar 29 13:14:31 2017

Reading input took 0.0000000000 seconds.
Finished filtering, writing output starting at Wed Mar 29 13:14:31 2017

Completed after 0.0000000000 seconds.
Finished successfully finished at Wed Mar 29 13:14:31 2017

This process (13240) memory usage: 
------------------------------------------
------------------------------------------

RemoveSubsets:
---------------
Input file:                                  /Users/joachim/repos/neosim/example/run/trackletsPurified/59609.tracklets.purified
Output file:                                 /Users/joachim/repos/neosim/example/run/trackletsFinal/59609.tracklets.final
RemoveSubsets:                               false
Short-circuit if possible:                   true
Sort sets by size before set intersection:   false
Keep only longest tracklet(s) per detection: false
Reading infile, starting at Wed Mar 29 13:14:31 2017

Finished reading infile at Wed Mar 29 13:14:31 2017

Reading input took 0.0000000000 seconds.
Finished filtering, writing output starting at Wed Mar 29 13:14:31 2017

Completed after 0.0000000000 seconds.
Finished successfully finished at Wed Mar 29 13:14:31 2017

This process (13242) memory usage: 
------------------------------------------
------------------------------------------

