RemoveSubsets:
---------------
Input file:                                  /Users/joachim/repos/neosim/example/run/trackletsPurified/59580.tracklets.purified
Output file:                                 /Users/joachim/repos/neosim/example/run/trackletsFinal/59580.tracklets.final
RemoveSubsets:                               false
Short-circuit if possible:                   true
Sort sets by size before set intersection:   false
Keep only longest tracklet(s) per detection: false
Reading infile, starting at Wed Mar 29 08:59:46 2017

Finished reading infile at Wed Mar 29 08:59:46 2017

Reading input took 0.0000000000 seconds.
Finished filtering, writing output starting at Wed Mar 29 08:59:46 2017

Completed after 0.0000000000 seconds.
Finished successfully finished at Wed Mar 29 08:59:46 2017

This process (41496) memory usage: 
------------------------------------------
------------------------------------------

RemoveSubsets:
---------------
Input file:                                  /Users/joachim/repos/neosim/example/run/trackletsPurified/59581.tracklets.purified
Output file:                                 /Users/joachim/repos/neosim/example/run/trackletsFinal/59581.tracklets.final
RemoveSubsets:                               false
Short-circuit if possible:                   true
Sort sets by size before set intersection:   false
Keep only longest tracklet(s) per detection: false
Reading infile, starting at Wed Mar 29 08:59:46 2017

Finished reading infile at Wed Mar 29 08:59:46 2017

Reading input took 0.0000000000 seconds.
Finished filtering, writing output starting at Wed Mar 29 08:59:46 2017

Completed after 0.0000000000 seconds.
Finished successfully finished at Wed Mar 29 08:59:46 2017

This process (41498) memory usage: 
------------------------------------------
------------------------------------------

RemoveSubsets:
---------------
Input file:                                  /Users/joachim/repos/neosim/example/run/trackletsPurified/59582.tracklets.purified
Output file:                                 /Users/joachim/repos/neosim/example/run/trackletsFinal/59582.tracklets.final
RemoveSubsets:                               false
Short-circuit if possible:                   true
Sort sets by size before set intersection:   false
Keep only longest tracklet(s) per detection: false
Reading infile, starting at Wed Mar 29 08:59:46 2017

Finished reading infile at Wed Mar 29 08:59:46 2017

Reading input took 0.0000000000 seconds.
Finished filtering, writing output starting at Wed Mar 29 08:59:46 2017

Completed after 0.0000000000 seconds.
Finished successfully finished at Wed Mar 29 08:59:46 2017

This process (41500) memory usage: 
------------------------------------------
------------------------------------------

RemoveSubsets:
---------------
Input file:                                  /Users/joachim/repos/neosim/example/run/trackletsPurified/59583.tracklets.purified
Output file:                                 /Users/joachim/repos/neosim/example/run/trackletsFinal/59583.tracklets.final
RemoveSubsets:                               false
Short-circuit if possible:                   true
Sort sets by size before set intersection:   false
Keep only longest tracklet(s) per detection: false
Reading infile, starting at Wed Mar 29 08:59:46 2017

Finished reading infile at Wed Mar 29 08:59:46 2017

Reading input took 0.0000000000 seconds.
Finished filtering, writing output starting at Wed Mar 29 08:59:46 2017

Completed after 0.0000000000 seconds.
Finished successfully finished at Wed Mar 29 08:59:46 2017

This process (41502) memory usage: 
------------------------------------------
------------------------------------------

RemoveSubsets:
---------------
Input file:                                  /Users/joachim/repos/neosim/example/run/trackletsPurified/59584.tracklets.purified
Output file:                                 /Users/joachim/repos/neosim/example/run/trackletsFinal/59584.tracklets.final
RemoveSubsets:                               false
Short-circuit if possible:                   true
Sort sets by size before set intersection:   false
Keep only longest tracklet(s) per detection: false
Reading infile, starting at Wed Mar 29 08:59:47 2017

Finished reading infile at Wed Mar 29 08:59:47 2017

Reading input took 0.0000000000 seconds.
Finished filtering, writing output starting at Wed Mar 29 08:59:47 2017

Completed after 0.0000000000 seconds.
Finished successfully finished at Wed Mar 29 08:59:47 2017

This process (41504) memory usage: 
------------------------------------------
------------------------------------------

RemoveSubsets:
---------------
Input file:                                  /Users/joachim/repos/neosim/example/run/trackletsPurified/59585.tracklets.purified
Output file:                                 /Users/joachim/repos/neosim/example/run/trackletsFinal/59585.tracklets.final
RemoveSubsets:                               false
Short-circuit if possible:                   true
Sort sets by size before set intersection:   false
Keep only longest tracklet(s) per detection: false
Reading infile, starting at Wed Mar 29 08:59:47 2017

Finished reading infile at Wed Mar 29 08:59:47 2017

Reading input took 0.0000000000 seconds.
Finished filtering, writing output starting at Wed Mar 29 08:59:47 2017

Completed after 0.0000000000 seconds.
Finished successfully finished at Wed Mar 29 08:59:47 2017

This process (41506) memory usage: 
------------------------------------------
------------------------------------------

RemoveSubsets:
---------------
Input file:                                  /Users/joachim/repos/neosim/example/run/trackletsPurified/59586.tracklets.purified
Output file:                                 /Users/joachim/repos/neosim/example/run/trackletsFinal/59586.tracklets.final
RemoveSubsets:                               false
Short-circuit if possible:                   true
Sort sets by size before set intersection:   false
Keep only longest tracklet(s) per detection: false
Reading infile, starting at Wed Mar 29 08:59:47 2017

Finished reading infile at Wed Mar 29 08:59:47 2017

Reading input took 0.0000000000 seconds.
Finished filtering, writing output starting at Wed Mar 29 08:59:47 2017

Completed after 0.0000000000 seconds.
Finished successfully finished at Wed Mar 29 08:59:47 2017

This process (41508) memory usage: 
------------------------------------------
------------------------------------------

RemoveSubsets:
---------------
Input file:                                  /Users/joachim/repos/neosim/example/run/trackletsPurified/59587.tracklets.purified
Output file:                                 /Users/joachim/repos/neosim/example/run/trackletsFinal/59587.tracklets.final
RemoveSubsets:                               false
Short-circuit if possible:                   true
Sort sets by size before set intersection:   false
Keep only longest tracklet(s) per detection: false
Reading infile, starting at Wed Mar 29 08:59:47 2017

Finished reading infile at Wed Mar 29 08:59:47 2017

Reading input took 0.0000000000 seconds.
Finished filtering, writing output starting at Wed Mar 29 08:59:47 2017

Completed after 0.0000000000 seconds.
Finished successfully finished at Wed Mar 29 08:59:47 2017

This process (41510) memory usage: 
------------------------------------------
------------------------------------------

RemoveSubsets:
---------------
Input file:                                  /Users/joachim/repos/neosim/example/run/trackletsPurified/59588.tracklets.purified
Output file:                                 /Users/joachim/repos/neosim/example/run/trackletsFinal/59588.tracklets.final
RemoveSubsets:                               false
Short-circuit if possible:                   true
Sort sets by size before set intersection:   false
Keep only longest tracklet(s) per detection: false
Reading infile, starting at Wed Mar 29 08:59:47 2017

Finished reading infile at Wed Mar 29 08:59:47 2017

Reading input took 0.0000000000 seconds.
Finished filtering, writing output starting at Wed Mar 29 08:59:47 2017

Completed after 0.0000000000 seconds.
Finished successfully finished at Wed Mar 29 08:59:47 2017

This process (41512) memory usage: 
------------------------------------------
------------------------------------------

RemoveSubsets:
---------------
Input file:                                  /Users/joachim/repos/neosim/example/run/trackletsPurified/59589.tracklets.purified
Output file:                                 /Users/joachim/repos/neosim/example/run/trackletsFinal/59589.tracklets.final
RemoveSubsets:                               false
Short-circuit if possible:                   true
Sort sets by size before set intersection:   false
Keep only longest tracklet(s) per detection: false
Reading infile, starting at Wed Mar 29 08:59:47 2017

Finished reading infile at Wed Mar 29 08:59:47 2017

Reading input took 0.0000000000 seconds.
Finished filtering, writing output starting at Wed Mar 29 08:59:47 2017

Completed after 0.0000000000 seconds.
Finished successfully finished at Wed Mar 29 08:59:47 2017

This process (41514) memory usage: 
------------------------------------------
------------------------------------------

RemoveSubsets:
---------------
Input file:                                  /Users/joachim/repos/neosim/example/run/trackletsPurified/59590.tracklets.purified
Output file:                                 /Users/joachim/repos/neosim/example/run/trackletsFinal/59590.tracklets.final
RemoveSubsets:                               false
Short-circuit if possible:                   true
Sort sets by size before set intersection:   false
Keep only longest tracklet(s) per detection: false
Reading infile, starting at Wed Mar 29 08:59:47 2017

Finished reading infile at Wed Mar 29 08:59:47 2017

Reading input took 0.0000000000 seconds.
Finished filtering, writing output starting at Wed Mar 29 08:59:47 2017

Completed after 0.0000000000 seconds.
Finished successfully finished at Wed Mar 29 08:59:47 2017

This process (41516) memory usage: 
------------------------------------------
------------------------------------------

RemoveSubsets:
---------------
Input file:                                  /Users/joachim/repos/neosim/example/run/trackletsPurified/59591.tracklets.purified
Output file:                                 /Users/joachim/repos/neosim/example/run/trackletsFinal/59591.tracklets.final
RemoveSubsets:                               false
Short-circuit if possible:                   true
Sort sets by size before set intersection:   false
Keep only longest tracklet(s) per detection: false
Reading infile, starting at Wed Mar 29 08:59:47 2017

Finished reading infile at Wed Mar 29 08:59:47 2017

Reading input took 0.0000000000 seconds.
Finished filtering, writing output starting at Wed Mar 29 08:59:47 2017

Completed after 0.0000000000 seconds.
Finished successfully finished at Wed Mar 29 08:59:47 2017

This process (41518) memory usage: 
------------------------------------------
------------------------------------------

RemoveSubsets:
---------------
Input file:                                  /Users/joachim/repos/neosim/example/run/trackletsPurified/59592.tracklets.purified
Output file:                                 /Users/joachim/repos/neosim/example/run/trackletsFinal/59592.tracklets.final
RemoveSubsets:                               false
Short-circuit if possible:                   true
Sort sets by size before set intersection:   false
Keep only longest tracklet(s) per detection: false
Reading infile, starting at Wed Mar 29 08:59:47 2017

Finished reading infile at Wed Mar 29 08:59:47 2017

Reading input took 0.0000000000 seconds.
Finished filtering, writing output starting at Wed Mar 29 08:59:47 2017

Completed after 0.0000000000 seconds.
Finished successfully finished at Wed Mar 29 08:59:47 2017

This process (41520) memory usage: 
------------------------------------------
------------------------------------------

RemoveSubsets:
---------------
Input file:                                  /Users/joachim/repos/neosim/example/run/trackletsPurified/59593.tracklets.purified
Output file:                                 /Users/joachim/repos/neosim/example/run/trackletsFinal/59593.tracklets.final
RemoveSubsets:                               false
Short-circuit if possible:                   true
Sort sets by size before set intersection:   false
Keep only longest tracklet(s) per detection: false
Reading infile, starting at Wed Mar 29 08:59:47 2017

Finished reading infile at Wed Mar 29 08:59:47 2017

Reading input took 0.0000000000 seconds.
Finished filtering, writing output starting at Wed Mar 29 08:59:47 2017

Completed after 0.0000000000 seconds.
Finished successfully finished at Wed Mar 29 08:59:47 2017

This process (41522) memory usage: 
------------------------------------------
------------------------------------------

RemoveSubsets:
---------------
Input file:                                  /Users/joachim/repos/neosim/example/run/trackletsPurified/59594.tracklets.purified
Output file:                                 /Users/joachim/repos/neosim/example/run/trackletsFinal/59594.tracklets.final
RemoveSubsets:                               false
Short-circuit if possible:                   true
Sort sets by size before set intersection:   false
Keep only longest tracklet(s) per detection: false
Reading infile, starting at Wed Mar 29 08:59:47 2017

Finished reading infile at Wed Mar 29 08:59:47 2017

Reading input took 0.0000000000 seconds.
Finished filtering, writing output starting at Wed Mar 29 08:59:47 2017

Completed after 0.0000000000 seconds.
Finished successfully finished at Wed Mar 29 08:59:47 2017

This process (41524) memory usage: 
------------------------------------------
------------------------------------------

RemoveSubsets:
---------------
Input file:                                  /Users/joachim/repos/neosim/example/run/trackletsPurified/59595.tracklets.purified
Output file:                                 /Users/joachim/repos/neosim/example/run/trackletsFinal/59595.tracklets.final
RemoveSubsets:                               false
Short-circuit if possible:                   true
Sort sets by size before set intersection:   false
Keep only longest tracklet(s) per detection: false
Reading infile, starting at Wed Mar 29 08:59:47 2017

Finished reading infile at Wed Mar 29 08:59:47 2017

Reading input took 0.0000000000 seconds.
Finished filtering, writing output starting at Wed Mar 29 08:59:47 2017

Completed after 0.0000000000 seconds.
Finished successfully finished at Wed Mar 29 08:59:47 2017

This process (41526) memory usage: 
------------------------------------------
------------------------------------------

RemoveSubsets:
---------------
Input file:                                  /Users/joachim/repos/neosim/example/run/trackletsPurified/59596.tracklets.purified
Output file:                                 /Users/joachim/repos/neosim/example/run/trackletsFinal/59596.tracklets.final
RemoveSubsets:                               false
Short-circuit if possible:                   true
Sort sets by size before set intersection:   false
Keep only longest tracklet(s) per detection: false
Reading infile, starting at Wed Mar 29 08:59:47 2017

Finished reading infile at Wed Mar 29 08:59:47 2017

Reading input took 0.0000000000 seconds.
Finished filtering, writing output starting at Wed Mar 29 08:59:47 2017

Completed after 0.0000000000 seconds.
Finished successfully finished at Wed Mar 29 08:59:47 2017

This process (41528) memory usage: 
------------------------------------------
------------------------------------------

RemoveSubsets:
---------------
Input file:                                  /Users/joachim/repos/neosim/example/run/trackletsPurified/59597.tracklets.purified
Output file:                                 /Users/joachim/repos/neosim/example/run/trackletsFinal/59597.tracklets.final
RemoveSubsets:                               false
Short-circuit if possible:                   true
Sort sets by size before set intersection:   false
Keep only longest tracklet(s) per detection: false
Reading infile, starting at Wed Mar 29 08:59:47 2017

Finished reading infile at Wed Mar 29 08:59:47 2017

Reading input took 0.0000000000 seconds.
Finished filtering, writing output starting at Wed Mar 29 08:59:47 2017

Completed after 0.0000000000 seconds.
Finished successfully finished at Wed Mar 29 08:59:47 2017

This process (41530) memory usage: 
------------------------------------------
------------------------------------------

RemoveSubsets:
---------------
Input file:                                  /Users/joachim/repos/neosim/example/run/trackletsPurified/59598.tracklets.purified
Output file:                                 /Users/joachim/repos/neosim/example/run/trackletsFinal/59598.tracklets.final
RemoveSubsets:                               false
Short-circuit if possible:                   true
Sort sets by size before set intersection:   false
Keep only longest tracklet(s) per detection: false
Reading infile, starting at Wed Mar 29 08:59:47 2017

Finished reading infile at Wed Mar 29 08:59:47 2017

Reading input took 0.0000000000 seconds.
Finished filtering, writing output starting at Wed Mar 29 08:59:47 2017

Completed after 0.0000000000 seconds.
Finished successfully finished at Wed Mar 29 08:59:47 2017

This process (41532) memory usage: 
------------------------------------------
------------------------------------------

RemoveSubsets:
---------------
Input file:                                  /Users/joachim/repos/neosim/example/run/trackletsPurified/59599.tracklets.purified
Output file:                                 /Users/joachim/repos/neosim/example/run/trackletsFinal/59599.tracklets.final
RemoveSubsets:                               false
Short-circuit if possible:                   true
Sort sets by size before set intersection:   false
Keep only longest tracklet(s) per detection: false
Reading infile, starting at Wed Mar 29 08:59:47 2017

Finished reading infile at Wed Mar 29 08:59:47 2017

Reading input took 0.0000000000 seconds.
Finished filtering, writing output starting at Wed Mar 29 08:59:47 2017

Completed after 0.0000000000 seconds.
Finished successfully finished at Wed Mar 29 08:59:47 2017

This process (41534) memory usage: 
------------------------------------------
------------------------------------------

RemoveSubsets:
---------------
Input file:                                  /Users/joachim/repos/neosim/example/run/trackletsPurified/59600.tracklets.purified
Output file:                                 /Users/joachim/repos/neosim/example/run/trackletsFinal/59600.tracklets.final
RemoveSubsets:                               false
Short-circuit if possible:                   true
Sort sets by size before set intersection:   false
Keep only longest tracklet(s) per detection: false
Reading infile, starting at Wed Mar 29 08:59:47 2017

Finished reading infile at Wed Mar 29 08:59:47 2017

Reading input took 0.0000000000 seconds.
Finished filtering, writing output starting at Wed Mar 29 08:59:47 2017

Completed after 0.0000000000 seconds.
Finished successfully finished at Wed Mar 29 08:59:47 2017

This process (41536) memory usage: 
------------------------------------------
------------------------------------------

RemoveSubsets:
---------------
Input file:                                  /Users/joachim/repos/neosim/example/run/trackletsPurified/59601.tracklets.purified
Output file:                                 /Users/joachim/repos/neosim/example/run/trackletsFinal/59601.tracklets.final
RemoveSubsets:                               false
Short-circuit if possible:                   true
Sort sets by size before set intersection:   false
Keep only longest tracklet(s) per detection: false
Reading infile, starting at Wed Mar 29 08:59:47 2017

Finished reading infile at Wed Mar 29 08:59:47 2017

Reading input took 0.0000000000 seconds.
Finished filtering, writing output starting at Wed Mar 29 08:59:47 2017

Completed after 0.0000000000 seconds.
Finished successfully finished at Wed Mar 29 08:59:47 2017

This process (41538) memory usage: 
------------------------------------------
------------------------------------------

RemoveSubsets:
---------------
Input file:                                  /Users/joachim/repos/neosim/example/run/trackletsPurified/59602.tracklets.purified
Output file:                                 /Users/joachim/repos/neosim/example/run/trackletsFinal/59602.tracklets.final
RemoveSubsets:                               false
Short-circuit if possible:                   true
Sort sets by size before set intersection:   false
Keep only longest tracklet(s) per detection: false
Reading infile, starting at Wed Mar 29 08:59:47 2017

Finished reading infile at Wed Mar 29 08:59:47 2017

Reading input took 0.0000000000 seconds.
Finished filtering, writing output starting at Wed Mar 29 08:59:47 2017

Completed after 0.0000000000 seconds.
Finished successfully finished at Wed Mar 29 08:59:47 2017

This process (41540) memory usage: 
------------------------------------------
------------------------------------------

RemoveSubsets:
---------------
Input file:                                  /Users/joachim/repos/neosim/example/run/trackletsPurified/59603.tracklets.purified
Output file:                                 /Users/joachim/repos/neosim/example/run/trackletsFinal/59603.tracklets.final
RemoveSubsets:                               false
Short-circuit if possible:                   true
Sort sets by size before set intersection:   false
Keep only longest tracklet(s) per detection: false
Reading infile, starting at Wed Mar 29 08:59:47 2017

Finished reading infile at Wed Mar 29 08:59:47 2017

Reading input took 0.0000000000 seconds.
Finished filtering, writing output starting at Wed Mar 29 08:59:47 2017

Completed after 0.0000000000 seconds.
Finished successfully finished at Wed Mar 29 08:59:47 2017

This process (41542) memory usage: 
------------------------------------------
------------------------------------------

RemoveSubsets:
---------------
Input file:                                  /Users/joachim/repos/neosim/example/run/trackletsPurified/59604.tracklets.purified
Output file:                                 /Users/joachim/repos/neosim/example/run/trackletsFinal/59604.tracklets.final
RemoveSubsets:                               false
Short-circuit if possible:                   true
Sort sets by size before set intersection:   false
Keep only longest tracklet(s) per detection: false
Reading infile, starting at Wed Mar 29 08:59:47 2017

Finished reading infile at Wed Mar 29 08:59:47 2017

Reading input took 0.0000000000 seconds.
Finished filtering, writing output starting at Wed Mar 29 08:59:47 2017

Completed after 0.0000000000 seconds.
Finished successfully finished at Wed Mar 29 08:59:47 2017

This process (41544) memory usage: 
------------------------------------------
------------------------------------------

RemoveSubsets:
---------------
Input file:                                  /Users/joachim/repos/neosim/example/run/trackletsPurified/59605.tracklets.purified
Output file:                                 /Users/joachim/repos/neosim/example/run/trackletsFinal/59605.tracklets.final
RemoveSubsets:                               false
Short-circuit if possible:                   true
Sort sets by size before set intersection:   false
Keep only longest tracklet(s) per detection: false
Reading infile, starting at Wed Mar 29 08:59:47 2017

Finished reading infile at Wed Mar 29 08:59:47 2017

Reading input took 0.0000000000 seconds.
Finished filtering, writing output starting at Wed Mar 29 08:59:47 2017

Completed after 0.0000000000 seconds.
Finished successfully finished at Wed Mar 29 08:59:47 2017

This process (41546) memory usage: 
------------------------------------------
------------------------------------------

RemoveSubsets:
---------------
Input file:                                  /Users/joachim/repos/neosim/example/run/trackletsPurified/59606.tracklets.purified
Output file:                                 /Users/joachim/repos/neosim/example/run/trackletsFinal/59606.tracklets.final
RemoveSubsets:                               false
Short-circuit if possible:                   true
Sort sets by size before set intersection:   false
Keep only longest tracklet(s) per detection: false
Reading infile, starting at Wed Mar 29 08:59:47 2017

Finished reading infile at Wed Mar 29 08:59:47 2017

Reading input took 0.0000000000 seconds.
Finished filtering, writing output starting at Wed Mar 29 08:59:47 2017

Completed after 0.0000000000 seconds.
Finished successfully finished at Wed Mar 29 08:59:47 2017

This process (41548) memory usage: 
------------------------------------------
------------------------------------------

RemoveSubsets:
---------------
Input file:                                  /Users/joachim/repos/neosim/example/run/trackletsPurified/59607.tracklets.purified
Output file:                                 /Users/joachim/repos/neosim/example/run/trackletsFinal/59607.tracklets.final
RemoveSubsets:                               false
Short-circuit if possible:                   true
Sort sets by size before set intersection:   false
Keep only longest tracklet(s) per detection: false
Reading infile, starting at Wed Mar 29 08:59:47 2017

Finished reading infile at Wed Mar 29 08:59:47 2017

Reading input took 0.0000000000 seconds.
Finished filtering, writing output starting at Wed Mar 29 08:59:47 2017

Completed after 0.0000000000 seconds.
Finished successfully finished at Wed Mar 29 08:59:47 2017

This process (41550) memory usage: 
------------------------------------------
------------------------------------------

RemoveSubsets:
---------------
Input file:                                  /Users/joachim/repos/neosim/example/run/trackletsPurified/59608.tracklets.purified
Output file:                                 /Users/joachim/repos/neosim/example/run/trackletsFinal/59608.tracklets.final
RemoveSubsets:                               false
Short-circuit if possible:                   true
Sort sets by size before set intersection:   false
Keep only longest tracklet(s) per detection: false
Reading infile, starting at Wed Mar 29 08:59:47 2017

Finished reading infile at Wed Mar 29 08:59:47 2017

Reading input took 0.0000000000 seconds.
Finished filtering, writing output starting at Wed Mar 29 08:59:47 2017

Completed after 0.0000000000 seconds.
Finished successfully finished at Wed Mar 29 08:59:47 2017

This process (41552) memory usage: 
------------------------------------------
------------------------------------------

RemoveSubsets:
---------------
Input file:                                  /Users/joachim/repos/neosim/example/run/trackletsPurified/59609.tracklets.purified
Output file:                                 /Users/joachim/repos/neosim/example/run/trackletsFinal/59609.tracklets.final
RemoveSubsets:                               false
Short-circuit if possible:                   true
Sort sets by size before set intersection:   false
Keep only longest tracklet(s) per detection: false
Reading infile, starting at Wed Mar 29 08:59:47 2017

Finished reading infile at Wed Mar 29 08:59:47 2017

Reading input took 0.0000000000 seconds.
Finished filtering, writing output starting at Wed Mar 29 08:59:47 2017

Completed after 0.0000000000 seconds.
Finished successfully finished at Wed Mar 29 08:59:47 2017

This process (41554) memory usage: 
------------------------------------------
------------------------------------------

