RemoveSubsets:
---------------
Input file:                                  /Users/joachim/repos/neosim/example/run/tracks/night_59580_through_59595.track
Output file:                                 /Users/joachim/repos/neosim/example/run/tracksFinal/night_59580_through_59595.track.final
RemoveSubsets:                               true
Short-circuit if possible:                   true
Sort sets by size before set intersection:   false
Keep only longest tracklet(s) per detection: true
Reading infile, starting at Wed Mar 29 08:59:50 2017

Finished reading infile at Wed Mar 29 08:59:50 2017

Reading input took 0.0000000000 seconds.
Building detection-to-track map, starting at Wed Mar 29 08:59:50 2017

Finished detection-to-track map, filtering tracks starting at Wed Mar 29 08:59:50 2017

Finished filtering, writing output starting at Wed Mar 29 08:59:50 2017

Completed after 0.0000000000 seconds.
Finished successfully finished at Wed Mar 29 08:59:50 2017

This process (41651) memory usage: 
------------------------------------------
------------------------------------------

RemoveSubsets:
---------------
Input file:                                  /Users/joachim/repos/neosim/example/run/tracks/night_59581_through_59596.track
Output file:                                 /Users/joachim/repos/neosim/example/run/tracksFinal/night_59581_through_59596.track.final
RemoveSubsets:                               true
Short-circuit if possible:                   true
Sort sets by size before set intersection:   false
Keep only longest tracklet(s) per detection: true
Reading infile, starting at Wed Mar 29 08:59:50 2017

Finished reading infile at Wed Mar 29 08:59:50 2017

Reading input took 0.0000000000 seconds.
Building detection-to-track map, starting at Wed Mar 29 08:59:50 2017

Finished detection-to-track map, filtering tracks starting at Wed Mar 29 08:59:50 2017

Finished filtering, writing output starting at Wed Mar 29 08:59:50 2017

Completed after 0.0000000000 seconds.
Finished successfully finished at Wed Mar 29 08:59:50 2017

This process (41653) memory usage: 
------------------------------------------
------------------------------------------

RemoveSubsets:
---------------
Input file:                                  /Users/joachim/repos/neosim/example/run/tracks/night_59582_through_59597.track
Output file:                                 /Users/joachim/repos/neosim/example/run/tracksFinal/night_59582_through_59597.track.final
RemoveSubsets:                               true
Short-circuit if possible:                   true
Sort sets by size before set intersection:   false
Keep only longest tracklet(s) per detection: true
Reading infile, starting at Wed Mar 29 08:59:50 2017

Finished reading infile at Wed Mar 29 08:59:50 2017

Reading input took 0.0000000000 seconds.
Building detection-to-track map, starting at Wed Mar 29 08:59:50 2017

Finished detection-to-track map, filtering tracks starting at Wed Mar 29 08:59:50 2017

Finished filtering, writing output starting at Wed Mar 29 08:59:50 2017

Completed after 0.0000000000 seconds.
Finished successfully finished at Wed Mar 29 08:59:50 2017

This process (41655) memory usage: 
------------------------------------------
------------------------------------------

RemoveSubsets:
---------------
Input file:                                  /Users/joachim/repos/neosim/example/run/tracks/night_59583_through_59598.track
Output file:                                 /Users/joachim/repos/neosim/example/run/tracksFinal/night_59583_through_59598.track.final
RemoveSubsets:                               true
Short-circuit if possible:                   true
Sort sets by size before set intersection:   false
Keep only longest tracklet(s) per detection: true
Reading infile, starting at Wed Mar 29 08:59:50 2017

Finished reading infile at Wed Mar 29 08:59:50 2017

Reading input took 0.0000000000 seconds.
Building detection-to-track map, starting at Wed Mar 29 08:59:50 2017

Finished detection-to-track map, filtering tracks starting at Wed Mar 29 08:59:50 2017

Finished filtering, writing output starting at Wed Mar 29 08:59:50 2017

Completed after 0.0000000000 seconds.
Finished successfully finished at Wed Mar 29 08:59:50 2017

This process (41657) memory usage: 
------------------------------------------
------------------------------------------

RemoveSubsets:
---------------
Input file:                                  /Users/joachim/repos/neosim/example/run/tracks/night_59584_through_59599.track
Output file:                                 /Users/joachim/repos/neosim/example/run/tracksFinal/night_59584_through_59599.track.final
RemoveSubsets:                               true
Short-circuit if possible:                   true
Sort sets by size before set intersection:   false
Keep only longest tracklet(s) per detection: true
Reading infile, starting at Wed Mar 29 08:59:50 2017

Finished reading infile at Wed Mar 29 08:59:50 2017

Reading input took 0.0000000000 seconds.
Building detection-to-track map, starting at Wed Mar 29 08:59:50 2017

Finished detection-to-track map, filtering tracks starting at Wed Mar 29 08:59:50 2017

Finished filtering, writing output starting at Wed Mar 29 08:59:50 2017

Completed after 0.0000000000 seconds.
Finished successfully finished at Wed Mar 29 08:59:50 2017

This process (41659) memory usage: 
------------------------------------------
------------------------------------------

RemoveSubsets:
---------------
Input file:                                  /Users/joachim/repos/neosim/example/run/tracks/night_59585_through_59600.track
Output file:                                 /Users/joachim/repos/neosim/example/run/tracksFinal/night_59585_through_59600.track.final
RemoveSubsets:                               true
Short-circuit if possible:                   true
Sort sets by size before set intersection:   false
Keep only longest tracklet(s) per detection: true
Reading infile, starting at Wed Mar 29 08:59:50 2017

Finished reading infile at Wed Mar 29 08:59:50 2017

Reading input took 0.0000000000 seconds.
Building detection-to-track map, starting at Wed Mar 29 08:59:50 2017

Finished detection-to-track map, filtering tracks starting at Wed Mar 29 08:59:50 2017

Finished filtering, writing output starting at Wed Mar 29 08:59:50 2017

Completed after 0.0000000000 seconds.
Finished successfully finished at Wed Mar 29 08:59:50 2017

This process (41661) memory usage: 
------------------------------------------
------------------------------------------

RemoveSubsets:
---------------
Input file:                                  /Users/joachim/repos/neosim/example/run/tracks/night_59586_through_59601.track
Output file:                                 /Users/joachim/repos/neosim/example/run/tracksFinal/night_59586_through_59601.track.final
RemoveSubsets:                               true
Short-circuit if possible:                   true
Sort sets by size before set intersection:   false
Keep only longest tracklet(s) per detection: true
Reading infile, starting at Wed Mar 29 08:59:50 2017

Finished reading infile at Wed Mar 29 08:59:50 2017

Reading input took 0.0000000000 seconds.
Building detection-to-track map, starting at Wed Mar 29 08:59:50 2017

Finished detection-to-track map, filtering tracks starting at Wed Mar 29 08:59:50 2017

Finished filtering, writing output starting at Wed Mar 29 08:59:50 2017

Completed after 0.0000000000 seconds.
Finished successfully finished at Wed Mar 29 08:59:50 2017

This process (41663) memory usage: 
------------------------------------------
------------------------------------------

RemoveSubsets:
---------------
Input file:                                  /Users/joachim/repos/neosim/example/run/tracks/night_59587_through_59602.track
Output file:                                 /Users/joachim/repos/neosim/example/run/tracksFinal/night_59587_through_59602.track.final
RemoveSubsets:                               true
Short-circuit if possible:                   true
Sort sets by size before set intersection:   false
Keep only longest tracklet(s) per detection: true
Reading infile, starting at Wed Mar 29 08:59:50 2017

Finished reading infile at Wed Mar 29 08:59:50 2017

Reading input took 0.0000000000 seconds.
Building detection-to-track map, starting at Wed Mar 29 08:59:50 2017

Finished detection-to-track map, filtering tracks starting at Wed Mar 29 08:59:50 2017

Finished filtering, writing output starting at Wed Mar 29 08:59:50 2017

Completed after 0.0000000000 seconds.
Finished successfully finished at Wed Mar 29 08:59:50 2017

This process (41665) memory usage: 
------------------------------------------
------------------------------------------

RemoveSubsets:
---------------
Input file:                                  /Users/joachim/repos/neosim/example/run/tracks/night_59588_through_59603.track
Output file:                                 /Users/joachim/repos/neosim/example/run/tracksFinal/night_59588_through_59603.track.final
RemoveSubsets:                               true
Short-circuit if possible:                   true
Sort sets by size before set intersection:   false
Keep only longest tracklet(s) per detection: true
Reading infile, starting at Wed Mar 29 08:59:50 2017

Finished reading infile at Wed Mar 29 08:59:50 2017

Reading input took 0.0000000000 seconds.
Building detection-to-track map, starting at Wed Mar 29 08:59:50 2017

Finished detection-to-track map, filtering tracks starting at Wed Mar 29 08:59:50 2017

Finished filtering, writing output starting at Wed Mar 29 08:59:50 2017

Completed after 0.0000000000 seconds.
Finished successfully finished at Wed Mar 29 08:59:50 2017

This process (41667) memory usage: 
------------------------------------------
------------------------------------------

RemoveSubsets:
---------------
Input file:                                  /Users/joachim/repos/neosim/example/run/tracks/night_59589_through_59604.track
Output file:                                 /Users/joachim/repos/neosim/example/run/tracksFinal/night_59589_through_59604.track.final
RemoveSubsets:                               true
Short-circuit if possible:                   true
Sort sets by size before set intersection:   false
Keep only longest tracklet(s) per detection: true
Reading infile, starting at Wed Mar 29 08:59:50 2017

Finished reading infile at Wed Mar 29 08:59:50 2017

Reading input took 0.0000000000 seconds.
Building detection-to-track map, starting at Wed Mar 29 08:59:50 2017

Finished detection-to-track map, filtering tracks starting at Wed Mar 29 08:59:50 2017

Finished filtering, writing output starting at Wed Mar 29 08:59:50 2017

Completed after 0.0000000000 seconds.
Finished successfully finished at Wed Mar 29 08:59:50 2017

This process (41669) memory usage: 
------------------------------------------
------------------------------------------

RemoveSubsets:
---------------
Input file:                                  /Users/joachim/repos/neosim/example/run/tracks/night_59590_through_59605.track
Output file:                                 /Users/joachim/repos/neosim/example/run/tracksFinal/night_59590_through_59605.track.final
RemoveSubsets:                               true
Short-circuit if possible:                   true
Sort sets by size before set intersection:   false
Keep only longest tracklet(s) per detection: true
Reading infile, starting at Wed Mar 29 08:59:50 2017

Finished reading infile at Wed Mar 29 08:59:50 2017

Reading input took 0.0000000000 seconds.
Building detection-to-track map, starting at Wed Mar 29 08:59:50 2017

Finished detection-to-track map, filtering tracks starting at Wed Mar 29 08:59:50 2017

Finished filtering, writing output starting at Wed Mar 29 08:59:50 2017

Completed after 0.0000000000 seconds.
Finished successfully finished at Wed Mar 29 08:59:50 2017

This process (41671) memory usage: 
------------------------------------------
------------------------------------------

RemoveSubsets:
---------------
Input file:                                  /Users/joachim/repos/neosim/example/run/tracks/night_59591_through_59606.track
Output file:                                 /Users/joachim/repos/neosim/example/run/tracksFinal/night_59591_through_59606.track.final
RemoveSubsets:                               true
Short-circuit if possible:                   true
Sort sets by size before set intersection:   false
Keep only longest tracklet(s) per detection: true
Reading infile, starting at Wed Mar 29 08:59:50 2017

Finished reading infile at Wed Mar 29 08:59:50 2017

Reading input took 0.0000000000 seconds.
Building detection-to-track map, starting at Wed Mar 29 08:59:50 2017

Finished detection-to-track map, filtering tracks starting at Wed Mar 29 08:59:50 2017

Finished filtering, writing output starting at Wed Mar 29 08:59:50 2017

Completed after 0.0000000000 seconds.
Finished successfully finished at Wed Mar 29 08:59:50 2017

This process (41673) memory usage: 
------------------------------------------
------------------------------------------

RemoveSubsets:
---------------
Input file:                                  /Users/joachim/repos/neosim/example/run/tracks/night_59592_through_59607.track
Output file:                                 /Users/joachim/repos/neosim/example/run/tracksFinal/night_59592_through_59607.track.final
RemoveSubsets:                               true
Short-circuit if possible:                   true
Sort sets by size before set intersection:   false
Keep only longest tracklet(s) per detection: true
Reading infile, starting at Wed Mar 29 08:59:50 2017

Finished reading infile at Wed Mar 29 08:59:50 2017

Reading input took 0.0000000000 seconds.
Building detection-to-track map, starting at Wed Mar 29 08:59:50 2017

Finished detection-to-track map, filtering tracks starting at Wed Mar 29 08:59:50 2017

Finished filtering, writing output starting at Wed Mar 29 08:59:50 2017

Completed after 0.0000000000 seconds.
Finished successfully finished at Wed Mar 29 08:59:50 2017

This process (41675) memory usage: 
------------------------------------------
------------------------------------------

RemoveSubsets:
---------------
Input file:                                  /Users/joachim/repos/neosim/example/run/tracks/night_59593_through_59608.track
Output file:                                 /Users/joachim/repos/neosim/example/run/tracksFinal/night_59593_through_59608.track.final
RemoveSubsets:                               true
Short-circuit if possible:                   true
Sort sets by size before set intersection:   false
Keep only longest tracklet(s) per detection: true
Reading infile, starting at Wed Mar 29 08:59:50 2017

Finished reading infile at Wed Mar 29 08:59:50 2017

Reading input took 0.0000000000 seconds.
Building detection-to-track map, starting at Wed Mar 29 08:59:50 2017

Finished detection-to-track map, filtering tracks starting at Wed Mar 29 08:59:50 2017

Finished filtering, writing output starting at Wed Mar 29 08:59:50 2017

Completed after 0.0000000000 seconds.
Finished successfully finished at Wed Mar 29 08:59:50 2017

This process (41677) memory usage: 
------------------------------------------
------------------------------------------

RemoveSubsets:
---------------
Input file:                                  /Users/joachim/repos/neosim/example/run/tracks/night_59594_through_59609.track
Output file:                                 /Users/joachim/repos/neosim/example/run/tracksFinal/night_59594_through_59609.track.final
RemoveSubsets:                               true
Short-circuit if possible:                   true
Sort sets by size before set intersection:   false
Keep only longest tracklet(s) per detection: true
Reading infile, starting at Wed Mar 29 08:59:50 2017

Finished reading infile at Wed Mar 29 08:59:50 2017

Reading input took 0.0000000000 seconds.
Building detection-to-track map, starting at Wed Mar 29 08:59:50 2017

Finished detection-to-track map, filtering tracks starting at Wed Mar 29 08:59:50 2017

Finished filtering, writing output starting at Wed Mar 29 08:59:50 2017

Completed after 0.0000000000 seconds.
Finished successfully finished at Wed Mar 29 08:59:50 2017

This process (41679) memory usage: 
------------------------------------------
------------------------------------------

RemoveSubsets:
---------------
Input file:                                  /Users/joachim/repos/neosim/example/run/tracks/night_59595_through_59609.track
Output file:                                 /Users/joachim/repos/neosim/example/run/tracksFinal/night_59595_through_59609.track.final
RemoveSubsets:                               true
Short-circuit if possible:                   true
Sort sets by size before set intersection:   false
Keep only longest tracklet(s) per detection: true
Reading infile, starting at Wed Mar 29 08:59:50 2017

Finished reading infile at Wed Mar 29 08:59:50 2017

Reading input took 0.0000000000 seconds.
Building detection-to-track map, starting at Wed Mar 29 08:59:50 2017

Finished detection-to-track map, filtering tracks starting at Wed Mar 29 08:59:50 2017

Finished filtering, writing output starting at Wed Mar 29 08:59:50 2017

Completed after 0.0000000000 seconds.
Finished successfully finished at Wed Mar 29 08:59:50 2017

This process (41681) memory usage: 
------------------------------------------
------------------------------------------

RemoveSubsets:
---------------
Input file:                                  /Users/joachim/repos/neosim/example/run/tracks/night_59596_through_59609.track
Output file:                                 /Users/joachim/repos/neosim/example/run/tracksFinal/night_59596_through_59609.track.final
RemoveSubsets:                               true
Short-circuit if possible:                   true
Sort sets by size before set intersection:   false
Keep only longest tracklet(s) per detection: true
Reading infile, starting at Wed Mar 29 08:59:50 2017

Finished reading infile at Wed Mar 29 08:59:50 2017

Reading input took 0.0000000000 seconds.
Building detection-to-track map, starting at Wed Mar 29 08:59:50 2017

Finished detection-to-track map, filtering tracks starting at Wed Mar 29 08:59:50 2017

Finished filtering, writing output starting at Wed Mar 29 08:59:50 2017

Completed after 0.0000000000 seconds.
Finished successfully finished at Wed Mar 29 08:59:50 2017

This process (41683) memory usage: 
------------------------------------------
------------------------------------------

RemoveSubsets:
---------------
Input file:                                  /Users/joachim/repos/neosim/example/run/tracks/night_59597_through_59609.track
Output file:                                 /Users/joachim/repos/neosim/example/run/tracksFinal/night_59597_through_59609.track.final
RemoveSubsets:                               true
Short-circuit if possible:                   true
Sort sets by size before set intersection:   false
Keep only longest tracklet(s) per detection: true
Reading infile, starting at Wed Mar 29 08:59:50 2017

Finished reading infile at Wed Mar 29 08:59:50 2017

Reading input took 0.0000000000 seconds.
Building detection-to-track map, starting at Wed Mar 29 08:59:50 2017

Finished detection-to-track map, filtering tracks starting at Wed Mar 29 08:59:50 2017

Finished filtering, writing output starting at Wed Mar 29 08:59:50 2017

Completed after 0.0000000000 seconds.
Finished successfully finished at Wed Mar 29 08:59:50 2017

This process (41685) memory usage: 
------------------------------------------
------------------------------------------

RemoveSubsets:
---------------
Input file:                                  /Users/joachim/repos/neosim/example/run/tracks/night_59598_through_59609.track
Output file:                                 /Users/joachim/repos/neosim/example/run/tracksFinal/night_59598_through_59609.track.final
RemoveSubsets:                               true
Short-circuit if possible:                   true
Sort sets by size before set intersection:   false
Keep only longest tracklet(s) per detection: true
Reading infile, starting at Wed Mar 29 08:59:50 2017

Finished reading infile at Wed Mar 29 08:59:50 2017

Reading input took 0.0000000000 seconds.
Building detection-to-track map, starting at Wed Mar 29 08:59:50 2017

Finished detection-to-track map, filtering tracks starting at Wed Mar 29 08:59:50 2017

Finished filtering, writing output starting at Wed Mar 29 08:59:50 2017

Completed after 0.0000000000 seconds.
Finished successfully finished at Wed Mar 29 08:59:50 2017

This process (41687) memory usage: 
------------------------------------------
------------------------------------------

RemoveSubsets:
---------------
Input file:                                  /Users/joachim/repos/neosim/example/run/tracks/night_59599_through_59609.track
Output file:                                 /Users/joachim/repos/neosim/example/run/tracksFinal/night_59599_through_59609.track.final
RemoveSubsets:                               true
Short-circuit if possible:                   true
Sort sets by size before set intersection:   false
Keep only longest tracklet(s) per detection: true
Reading infile, starting at Wed Mar 29 08:59:50 2017

Finished reading infile at Wed Mar 29 08:59:50 2017

Reading input took 0.0000000000 seconds.
Building detection-to-track map, starting at Wed Mar 29 08:59:50 2017

Finished detection-to-track map, filtering tracks starting at Wed Mar 29 08:59:50 2017

Finished filtering, writing output starting at Wed Mar 29 08:59:50 2017

Completed after 0.0000000000 seconds.
Finished successfully finished at Wed Mar 29 08:59:50 2017

This process (41689) memory usage: 
------------------------------------------
------------------------------------------

RemoveSubsets:
---------------
Input file:                                  /Users/joachim/repos/neosim/example/run/tracks/night_59600_through_59609.track
Output file:                                 /Users/joachim/repos/neosim/example/run/tracksFinal/night_59600_through_59609.track.final
RemoveSubsets:                               true
Short-circuit if possible:                   true
Sort sets by size before set intersection:   false
Keep only longest tracklet(s) per detection: true
Reading infile, starting at Wed Mar 29 08:59:50 2017

Finished reading infile at Wed Mar 29 08:59:50 2017

Reading input took 0.0000000000 seconds.
Building detection-to-track map, starting at Wed Mar 29 08:59:50 2017

Finished detection-to-track map, filtering tracks starting at Wed Mar 29 08:59:50 2017

Finished filtering, writing output starting at Wed Mar 29 08:59:50 2017

Completed after 0.0000000000 seconds.
Finished successfully finished at Wed Mar 29 08:59:50 2017

This process (41691) memory usage: 
------------------------------------------
------------------------------------------

RemoveSubsets:
---------------
Input file:                                  /Users/joachim/repos/neosim/example/run/tracks/night_59601_through_59609.track
Output file:                                 /Users/joachim/repos/neosim/example/run/tracksFinal/night_59601_through_59609.track.final
RemoveSubsets:                               true
Short-circuit if possible:                   true
Sort sets by size before set intersection:   false
Keep only longest tracklet(s) per detection: true
Reading infile, starting at Wed Mar 29 08:59:50 2017

Finished reading infile at Wed Mar 29 08:59:50 2017

Reading input took 0.0000000000 seconds.
Building detection-to-track map, starting at Wed Mar 29 08:59:50 2017

Finished detection-to-track map, filtering tracks starting at Wed Mar 29 08:59:50 2017

Finished filtering, writing output starting at Wed Mar 29 08:59:50 2017

Completed after 0.0000000000 seconds.
Finished successfully finished at Wed Mar 29 08:59:50 2017

This process (41693) memory usage: 
------------------------------------------
------------------------------------------

RemoveSubsets:
---------------
Input file:                                  /Users/joachim/repos/neosim/example/run/tracks/night_59602_through_59609.track
Output file:                                 /Users/joachim/repos/neosim/example/run/tracksFinal/night_59602_through_59609.track.final
RemoveSubsets:                               true
Short-circuit if possible:                   true
Sort sets by size before set intersection:   false
Keep only longest tracklet(s) per detection: true
Reading infile, starting at Wed Mar 29 08:59:50 2017

Finished reading infile at Wed Mar 29 08:59:50 2017

Reading input took 0.0000000000 seconds.
Building detection-to-track map, starting at Wed Mar 29 08:59:50 2017

Finished detection-to-track map, filtering tracks starting at Wed Mar 29 08:59:50 2017

Finished filtering, writing output starting at Wed Mar 29 08:59:50 2017

Completed after 0.0000000000 seconds.
Finished successfully finished at Wed Mar 29 08:59:50 2017

This process (41695) memory usage: 
------------------------------------------
------------------------------------------

RemoveSubsets:
---------------
Input file:                                  /Users/joachim/repos/neosim/example/run/tracks/night_59603_through_59609.track
Output file:                                 /Users/joachim/repos/neosim/example/run/tracksFinal/night_59603_through_59609.track.final
RemoveSubsets:                               true
Short-circuit if possible:                   true
Sort sets by size before set intersection:   false
Keep only longest tracklet(s) per detection: true
Reading infile, starting at Wed Mar 29 08:59:50 2017

Finished reading infile at Wed Mar 29 08:59:50 2017

Reading input took 0.0000000000 seconds.
Building detection-to-track map, starting at Wed Mar 29 08:59:50 2017

Finished detection-to-track map, filtering tracks starting at Wed Mar 29 08:59:50 2017

Finished filtering, writing output starting at Wed Mar 29 08:59:50 2017

Completed after 0.0000000000 seconds.
Finished successfully finished at Wed Mar 29 08:59:50 2017

This process (41697) memory usage: 
------------------------------------------
------------------------------------------

RemoveSubsets:
---------------
Input file:                                  /Users/joachim/repos/neosim/example/run/tracks/night_59604_through_59609.track
Output file:                                 /Users/joachim/repos/neosim/example/run/tracksFinal/night_59604_through_59609.track.final
RemoveSubsets:                               true
Short-circuit if possible:                   true
Sort sets by size before set intersection:   false
Keep only longest tracklet(s) per detection: true
Reading infile, starting at Wed Mar 29 08:59:50 2017

Finished reading infile at Wed Mar 29 08:59:50 2017

Reading input took 0.0000000000 seconds.
Building detection-to-track map, starting at Wed Mar 29 08:59:50 2017

Finished detection-to-track map, filtering tracks starting at Wed Mar 29 08:59:50 2017

Finished filtering, writing output starting at Wed Mar 29 08:59:50 2017

Completed after 0.0000000000 seconds.
Finished successfully finished at Wed Mar 29 08:59:50 2017

This process (41699) memory usage: 
------------------------------------------
------------------------------------------

RemoveSubsets:
---------------
Input file:                                  /Users/joachim/repos/neosim/example/run/tracks/night_59605_through_59609.track
Output file:                                 /Users/joachim/repos/neosim/example/run/tracksFinal/night_59605_through_59609.track.final
RemoveSubsets:                               true
Short-circuit if possible:                   true
Sort sets by size before set intersection:   false
Keep only longest tracklet(s) per detection: true
Reading infile, starting at Wed Mar 29 08:59:50 2017

Finished reading infile at Wed Mar 29 08:59:50 2017

Reading input took 0.0000000000 seconds.
Building detection-to-track map, starting at Wed Mar 29 08:59:50 2017

Finished detection-to-track map, filtering tracks starting at Wed Mar 29 08:59:50 2017

Finished filtering, writing output starting at Wed Mar 29 08:59:50 2017

Completed after 0.0000000000 seconds.
Finished successfully finished at Wed Mar 29 08:59:50 2017

This process (41701) memory usage: 
------------------------------------------
------------------------------------------

RemoveSubsets:
---------------
Input file:                                  /Users/joachim/repos/neosim/example/run/tracks/night_59606_through_59609.track
Output file:                                 /Users/joachim/repos/neosim/example/run/tracksFinal/night_59606_through_59609.track.final
RemoveSubsets:                               true
Short-circuit if possible:                   true
Sort sets by size before set intersection:   false
Keep only longest tracklet(s) per detection: true
Reading infile, starting at Wed Mar 29 08:59:50 2017

Finished reading infile at Wed Mar 29 08:59:50 2017

Reading input took 0.0000000000 seconds.
Building detection-to-track map, starting at Wed Mar 29 08:59:50 2017

Finished detection-to-track map, filtering tracks starting at Wed Mar 29 08:59:50 2017

Finished filtering, writing output starting at Wed Mar 29 08:59:50 2017

Completed after 0.0000000000 seconds.
Finished successfully finished at Wed Mar 29 08:59:50 2017

This process (41703) memory usage: 
------------------------------------------
------------------------------------------

RemoveSubsets:
---------------
Input file:                                  /Users/joachim/repos/neosim/example/run/tracks/night_59607_through_59609.track
Output file:                                 /Users/joachim/repos/neosim/example/run/tracksFinal/night_59607_through_59609.track.final
RemoveSubsets:                               true
Short-circuit if possible:                   true
Sort sets by size before set intersection:   false
Keep only longest tracklet(s) per detection: true
Reading infile, starting at Wed Mar 29 08:59:50 2017

Finished reading infile at Wed Mar 29 08:59:50 2017

Reading input took 0.0000000000 seconds.
Building detection-to-track map, starting at Wed Mar 29 08:59:50 2017

Finished detection-to-track map, filtering tracks starting at Wed Mar 29 08:59:50 2017

Finished filtering, writing output starting at Wed Mar 29 08:59:50 2017

Completed after 0.0000000000 seconds.
Finished successfully finished at Wed Mar 29 08:59:50 2017

This process (41705) memory usage: 
------------------------------------------
------------------------------------------

