RemoveSubsets:
---------------
Input file:                                  /Users/joachim/repos/neosim/example/run/tracks/night_59580_through_59595.track
Output file:                                 /Users/joachim/repos/neosim/example/run/tracksFinal/night_59580_through_59595.track.final
RemoveSubsets:                               true
Short-circuit if possible:                   true
Sort sets by size before set intersection:   false
Keep only longest tracklet(s) per detection: true
Reading infile, starting at Wed Mar 29 13:14:34 2017

Finished reading infile at Wed Mar 29 13:14:34 2017

Reading input took 0.0000000000 seconds.
Building detection-to-track map, starting at Wed Mar 29 13:14:34 2017

Finished detection-to-track map, filtering tracks starting at Wed Mar 29 13:14:34 2017

Finished filtering, writing output starting at Wed Mar 29 13:14:34 2017

Completed after 0.0000000000 seconds.
Finished successfully finished at Wed Mar 29 13:14:34 2017

This process (13339) memory usage: 
------------------------------------------
------------------------------------------

RemoveSubsets:
---------------
Input file:                                  /Users/joachim/repos/neosim/example/run/tracks/night_59581_through_59596.track
Output file:                                 /Users/joachim/repos/neosim/example/run/tracksFinal/night_59581_through_59596.track.final
RemoveSubsets:                               true
Short-circuit if possible:                   true
Sort sets by size before set intersection:   false
Keep only longest tracklet(s) per detection: true
Reading infile, starting at Wed Mar 29 13:14:34 2017

Finished reading infile at Wed Mar 29 13:14:34 2017

Reading input took 0.0000000000 seconds.
Building detection-to-track map, starting at Wed Mar 29 13:14:34 2017

Finished detection-to-track map, filtering tracks starting at Wed Mar 29 13:14:34 2017

Finished filtering, writing output starting at Wed Mar 29 13:14:34 2017

Completed after 0.0000000000 seconds.
Finished successfully finished at Wed Mar 29 13:14:34 2017

This process (13341) memory usage: 
------------------------------------------
------------------------------------------

RemoveSubsets:
---------------
Input file:                                  /Users/joachim/repos/neosim/example/run/tracks/night_59582_through_59597.track
Output file:                                 /Users/joachim/repos/neosim/example/run/tracksFinal/night_59582_through_59597.track.final
RemoveSubsets:                               true
Short-circuit if possible:                   true
Sort sets by size before set intersection:   false
Keep only longest tracklet(s) per detection: true
Reading infile, starting at Wed Mar 29 13:14:34 2017

Finished reading infile at Wed Mar 29 13:14:34 2017

Reading input took 0.0000000000 seconds.
Building detection-to-track map, starting at Wed Mar 29 13:14:34 2017

Finished detection-to-track map, filtering tracks starting at Wed Mar 29 13:14:34 2017

Finished filtering, writing output starting at Wed Mar 29 13:14:34 2017

Completed after 0.0000000000 seconds.
Finished successfully finished at Wed Mar 29 13:14:34 2017

This process (13343) memory usage: 
------------------------------------------
------------------------------------------

RemoveSubsets:
---------------
Input file:                                  /Users/joachim/repos/neosim/example/run/tracks/night_59583_through_59598.track
Output file:                                 /Users/joachim/repos/neosim/example/run/tracksFinal/night_59583_through_59598.track.final
RemoveSubsets:                               true
Short-circuit if possible:                   true
Sort sets by size before set intersection:   false
Keep only longest tracklet(s) per detection: true
Reading infile, starting at Wed Mar 29 13:14:34 2017

Finished reading infile at Wed Mar 29 13:14:34 2017

Reading input took 0.0000000000 seconds.
Building detection-to-track map, starting at Wed Mar 29 13:14:34 2017

Finished detection-to-track map, filtering tracks starting at Wed Mar 29 13:14:34 2017

Finished filtering, writing output starting at Wed Mar 29 13:14:34 2017

Completed after 0.0000000000 seconds.
Finished successfully finished at Wed Mar 29 13:14:34 2017

This process (13345) memory usage: 
------------------------------------------
------------------------------------------

RemoveSubsets:
---------------
Input file:                                  /Users/joachim/repos/neosim/example/run/tracks/night_59584_through_59599.track
Output file:                                 /Users/joachim/repos/neosim/example/run/tracksFinal/night_59584_through_59599.track.final
RemoveSubsets:                               true
Short-circuit if possible:                   true
Sort sets by size before set intersection:   false
Keep only longest tracklet(s) per detection: true
Reading infile, starting at Wed Mar 29 13:14:34 2017

Finished reading infile at Wed Mar 29 13:14:34 2017

Reading input took 0.0000000000 seconds.
Building detection-to-track map, starting at Wed Mar 29 13:14:34 2017

Finished detection-to-track map, filtering tracks starting at Wed Mar 29 13:14:34 2017

Finished filtering, writing output starting at Wed Mar 29 13:14:34 2017

Completed after 0.0000000000 seconds.
Finished successfully finished at Wed Mar 29 13:14:34 2017

This process (13347) memory usage: 
------------------------------------------
------------------------------------------

RemoveSubsets:
---------------
Input file:                                  /Users/joachim/repos/neosim/example/run/tracks/night_59585_through_59600.track
Output file:                                 /Users/joachim/repos/neosim/example/run/tracksFinal/night_59585_through_59600.track.final
RemoveSubsets:                               true
Short-circuit if possible:                   true
Sort sets by size before set intersection:   false
Keep only longest tracklet(s) per detection: true
Reading infile, starting at Wed Mar 29 13:14:34 2017

Finished reading infile at Wed Mar 29 13:14:34 2017

Reading input took 0.0000000000 seconds.
Building detection-to-track map, starting at Wed Mar 29 13:14:34 2017

Finished detection-to-track map, filtering tracks starting at Wed Mar 29 13:14:34 2017

Finished filtering, writing output starting at Wed Mar 29 13:14:34 2017

Completed after 0.0000000000 seconds.
Finished successfully finished at Wed Mar 29 13:14:34 2017

This process (13349) memory usage: 
------------------------------------------
------------------------------------------

RemoveSubsets:
---------------
Input file:                                  /Users/joachim/repos/neosim/example/run/tracks/night_59586_through_59601.track
Output file:                                 /Users/joachim/repos/neosim/example/run/tracksFinal/night_59586_through_59601.track.final
RemoveSubsets:                               true
Short-circuit if possible:                   true
Sort sets by size before set intersection:   false
Keep only longest tracklet(s) per detection: true
Reading infile, starting at Wed Mar 29 13:14:34 2017

Finished reading infile at Wed Mar 29 13:14:34 2017

Reading input took 0.0000000000 seconds.
Building detection-to-track map, starting at Wed Mar 29 13:14:34 2017

Finished detection-to-track map, filtering tracks starting at Wed Mar 29 13:14:34 2017

Finished filtering, writing output starting at Wed Mar 29 13:14:34 2017

Completed after 0.0000000000 seconds.
Finished successfully finished at Wed Mar 29 13:14:34 2017

This process (13351) memory usage: 
------------------------------------------
------------------------------------------

RemoveSubsets:
---------------
Input file:                                  /Users/joachim/repos/neosim/example/run/tracks/night_59587_through_59602.track
Output file:                                 /Users/joachim/repos/neosim/example/run/tracksFinal/night_59587_through_59602.track.final
RemoveSubsets:                               true
Short-circuit if possible:                   true
Sort sets by size before set intersection:   false
Keep only longest tracklet(s) per detection: true
Reading infile, starting at Wed Mar 29 13:14:34 2017

Finished reading infile at Wed Mar 29 13:14:34 2017

Reading input took 0.0000000000 seconds.
Building detection-to-track map, starting at Wed Mar 29 13:14:34 2017

Finished detection-to-track map, filtering tracks starting at Wed Mar 29 13:14:34 2017

Finished filtering, writing output starting at Wed Mar 29 13:14:34 2017

Completed after 0.0000000000 seconds.
Finished successfully finished at Wed Mar 29 13:14:34 2017

This process (13353) memory usage: 
------------------------------------------
------------------------------------------

RemoveSubsets:
---------------
Input file:                                  /Users/joachim/repos/neosim/example/run/tracks/night_59588_through_59603.track
Output file:                                 /Users/joachim/repos/neosim/example/run/tracksFinal/night_59588_through_59603.track.final
RemoveSubsets:                               true
Short-circuit if possible:                   true
Sort sets by size before set intersection:   false
Keep only longest tracklet(s) per detection: true
Reading infile, starting at Wed Mar 29 13:14:34 2017

Finished reading infile at Wed Mar 29 13:14:34 2017

Reading input took 0.0000000000 seconds.
Building detection-to-track map, starting at Wed Mar 29 13:14:34 2017

Finished detection-to-track map, filtering tracks starting at Wed Mar 29 13:14:34 2017

Finished filtering, writing output starting at Wed Mar 29 13:14:34 2017

Completed after 0.0000000000 seconds.
Finished successfully finished at Wed Mar 29 13:14:34 2017

This process (13355) memory usage: 
------------------------------------------
------------------------------------------

RemoveSubsets:
---------------
Input file:                                  /Users/joachim/repos/neosim/example/run/tracks/night_59589_through_59604.track
Output file:                                 /Users/joachim/repos/neosim/example/run/tracksFinal/night_59589_through_59604.track.final
RemoveSubsets:                               true
Short-circuit if possible:                   true
Sort sets by size before set intersection:   false
Keep only longest tracklet(s) per detection: true
Reading infile, starting at Wed Mar 29 13:14:35 2017

Finished reading infile at Wed Mar 29 13:14:35 2017

Reading input took 0.0000000000 seconds.
Building detection-to-track map, starting at Wed Mar 29 13:14:35 2017

Finished detection-to-track map, filtering tracks starting at Wed Mar 29 13:14:35 2017

Finished filtering, writing output starting at Wed Mar 29 13:14:35 2017

Completed after 0.0000000000 seconds.
Finished successfully finished at Wed Mar 29 13:14:35 2017

This process (13357) memory usage: 
------------------------------------------
------------------------------------------

RemoveSubsets:
---------------
Input file:                                  /Users/joachim/repos/neosim/example/run/tracks/night_59590_through_59605.track
Output file:                                 /Users/joachim/repos/neosim/example/run/tracksFinal/night_59590_through_59605.track.final
RemoveSubsets:                               true
Short-circuit if possible:                   true
Sort sets by size before set intersection:   false
Keep only longest tracklet(s) per detection: true
Reading infile, starting at Wed Mar 29 13:14:35 2017

Finished reading infile at Wed Mar 29 13:14:35 2017

Reading input took 0.0000000000 seconds.
Building detection-to-track map, starting at Wed Mar 29 13:14:35 2017

Finished detection-to-track map, filtering tracks starting at Wed Mar 29 13:14:35 2017

Finished filtering, writing output starting at Wed Mar 29 13:14:35 2017

Completed after 0.0000000000 seconds.
Finished successfully finished at Wed Mar 29 13:14:35 2017

This process (13359) memory usage: 
------------------------------------------
------------------------------------------

RemoveSubsets:
---------------
Input file:                                  /Users/joachim/repos/neosim/example/run/tracks/night_59591_through_59606.track
Output file:                                 /Users/joachim/repos/neosim/example/run/tracksFinal/night_59591_through_59606.track.final
RemoveSubsets:                               true
Short-circuit if possible:                   true
Sort sets by size before set intersection:   false
Keep only longest tracklet(s) per detection: true
Reading infile, starting at Wed Mar 29 13:14:35 2017

Finished reading infile at Wed Mar 29 13:14:35 2017

Reading input took 0.0000000000 seconds.
Building detection-to-track map, starting at Wed Mar 29 13:14:35 2017

Finished detection-to-track map, filtering tracks starting at Wed Mar 29 13:14:35 2017

Finished filtering, writing output starting at Wed Mar 29 13:14:35 2017

Completed after 0.0000000000 seconds.
Finished successfully finished at Wed Mar 29 13:14:35 2017

This process (13361) memory usage: 
------------------------------------------
------------------------------------------

RemoveSubsets:
---------------
Input file:                                  /Users/joachim/repos/neosim/example/run/tracks/night_59592_through_59607.track
Output file:                                 /Users/joachim/repos/neosim/example/run/tracksFinal/night_59592_through_59607.track.final
RemoveSubsets:                               true
Short-circuit if possible:                   true
Sort sets by size before set intersection:   false
Keep only longest tracklet(s) per detection: true
Reading infile, starting at Wed Mar 29 13:14:35 2017

Finished reading infile at Wed Mar 29 13:14:35 2017

Reading input took 0.0000000000 seconds.
Building detection-to-track map, starting at Wed Mar 29 13:14:35 2017

Finished detection-to-track map, filtering tracks starting at Wed Mar 29 13:14:35 2017

Finished filtering, writing output starting at Wed Mar 29 13:14:35 2017

Completed after 0.0000000000 seconds.
Finished successfully finished at Wed Mar 29 13:14:35 2017

This process (13363) memory usage: 
------------------------------------------
------------------------------------------

RemoveSubsets:
---------------
Input file:                                  /Users/joachim/repos/neosim/example/run/tracks/night_59593_through_59608.track
Output file:                                 /Users/joachim/repos/neosim/example/run/tracksFinal/night_59593_through_59608.track.final
RemoveSubsets:                               true
Short-circuit if possible:                   true
Sort sets by size before set intersection:   false
Keep only longest tracklet(s) per detection: true
Reading infile, starting at Wed Mar 29 13:14:35 2017

Finished reading infile at Wed Mar 29 13:14:35 2017

Reading input took 0.0000000000 seconds.
Building detection-to-track map, starting at Wed Mar 29 13:14:35 2017

Finished detection-to-track map, filtering tracks starting at Wed Mar 29 13:14:35 2017

Finished filtering, writing output starting at Wed Mar 29 13:14:35 2017

Completed after 0.0000000000 seconds.
Finished successfully finished at Wed Mar 29 13:14:35 2017

This process (13365) memory usage: 
------------------------------------------
------------------------------------------

RemoveSubsets:
---------------
Input file:                                  /Users/joachim/repos/neosim/example/run/tracks/night_59594_through_59609.track
Output file:                                 /Users/joachim/repos/neosim/example/run/tracksFinal/night_59594_through_59609.track.final
RemoveSubsets:                               true
Short-circuit if possible:                   true
Sort sets by size before set intersection:   false
Keep only longest tracklet(s) per detection: true
Reading infile, starting at Wed Mar 29 13:14:35 2017

Finished reading infile at Wed Mar 29 13:14:35 2017

Reading input took 0.0000000000 seconds.
Building detection-to-track map, starting at Wed Mar 29 13:14:35 2017

Finished detection-to-track map, filtering tracks starting at Wed Mar 29 13:14:35 2017

Finished filtering, writing output starting at Wed Mar 29 13:14:35 2017

Completed after 0.0000000000 seconds.
Finished successfully finished at Wed Mar 29 13:14:35 2017

This process (13367) memory usage: 
------------------------------------------
------------------------------------------

RemoveSubsets:
---------------
Input file:                                  /Users/joachim/repos/neosim/example/run/tracks/night_59595_through_59609.track
Output file:                                 /Users/joachim/repos/neosim/example/run/tracksFinal/night_59595_through_59609.track.final
RemoveSubsets:                               true
Short-circuit if possible:                   true
Sort sets by size before set intersection:   false
Keep only longest tracklet(s) per detection: true
Reading infile, starting at Wed Mar 29 13:14:35 2017

Finished reading infile at Wed Mar 29 13:14:35 2017

Reading input took 0.0000000000 seconds.
Building detection-to-track map, starting at Wed Mar 29 13:14:35 2017

Finished detection-to-track map, filtering tracks starting at Wed Mar 29 13:14:35 2017

Finished filtering, writing output starting at Wed Mar 29 13:14:35 2017

Completed after 0.0000000000 seconds.
Finished successfully finished at Wed Mar 29 13:14:35 2017

This process (13369) memory usage: 
------------------------------------------
------------------------------------------

RemoveSubsets:
---------------
Input file:                                  /Users/joachim/repos/neosim/example/run/tracks/night_59596_through_59609.track
Output file:                                 /Users/joachim/repos/neosim/example/run/tracksFinal/night_59596_through_59609.track.final
RemoveSubsets:                               true
Short-circuit if possible:                   true
Sort sets by size before set intersection:   false
Keep only longest tracklet(s) per detection: true
Reading infile, starting at Wed Mar 29 13:14:35 2017

Finished reading infile at Wed Mar 29 13:14:35 2017

Reading input took 0.0000000000 seconds.
Building detection-to-track map, starting at Wed Mar 29 13:14:35 2017

Finished detection-to-track map, filtering tracks starting at Wed Mar 29 13:14:35 2017

Finished filtering, writing output starting at Wed Mar 29 13:14:35 2017

Completed after 0.0000000000 seconds.
Finished successfully finished at Wed Mar 29 13:14:35 2017

This process (13371) memory usage: 
------------------------------------------
------------------------------------------

RemoveSubsets:
---------------
Input file:                                  /Users/joachim/repos/neosim/example/run/tracks/night_59597_through_59609.track
Output file:                                 /Users/joachim/repos/neosim/example/run/tracksFinal/night_59597_through_59609.track.final
RemoveSubsets:                               true
Short-circuit if possible:                   true
Sort sets by size before set intersection:   false
Keep only longest tracklet(s) per detection: true
Reading infile, starting at Wed Mar 29 13:14:35 2017

Finished reading infile at Wed Mar 29 13:14:35 2017

Reading input took 0.0000000000 seconds.
Building detection-to-track map, starting at Wed Mar 29 13:14:35 2017

Finished detection-to-track map, filtering tracks starting at Wed Mar 29 13:14:35 2017

Finished filtering, writing output starting at Wed Mar 29 13:14:35 2017

Completed after 0.0000000000 seconds.
Finished successfully finished at Wed Mar 29 13:14:35 2017

This process (13373) memory usage: 
------------------------------------------
------------------------------------------

RemoveSubsets:
---------------
Input file:                                  /Users/joachim/repos/neosim/example/run/tracks/night_59598_through_59609.track
Output file:                                 /Users/joachim/repos/neosim/example/run/tracksFinal/night_59598_through_59609.track.final
RemoveSubsets:                               true
Short-circuit if possible:                   true
Sort sets by size before set intersection:   false
Keep only longest tracklet(s) per detection: true
Reading infile, starting at Wed Mar 29 13:14:35 2017

Finished reading infile at Wed Mar 29 13:14:35 2017

Reading input took 0.0000000000 seconds.
Building detection-to-track map, starting at Wed Mar 29 13:14:35 2017

Finished detection-to-track map, filtering tracks starting at Wed Mar 29 13:14:35 2017

Finished filtering, writing output starting at Wed Mar 29 13:14:35 2017

Completed after 0.0000000000 seconds.
Finished successfully finished at Wed Mar 29 13:14:35 2017

This process (13375) memory usage: 
------------------------------------------
------------------------------------------

RemoveSubsets:
---------------
Input file:                                  /Users/joachim/repos/neosim/example/run/tracks/night_59599_through_59609.track
Output file:                                 /Users/joachim/repos/neosim/example/run/tracksFinal/night_59599_through_59609.track.final
RemoveSubsets:                               true
Short-circuit if possible:                   true
Sort sets by size before set intersection:   false
Keep only longest tracklet(s) per detection: true
Reading infile, starting at Wed Mar 29 13:14:35 2017

Finished reading infile at Wed Mar 29 13:14:35 2017

Reading input took 0.0000000000 seconds.
Building detection-to-track map, starting at Wed Mar 29 13:14:35 2017

Finished detection-to-track map, filtering tracks starting at Wed Mar 29 13:14:35 2017

Finished filtering, writing output starting at Wed Mar 29 13:14:35 2017

Completed after 0.0000000000 seconds.
Finished successfully finished at Wed Mar 29 13:14:35 2017

This process (13377) memory usage: 
------------------------------------------
------------------------------------------

RemoveSubsets:
---------------
Input file:                                  /Users/joachim/repos/neosim/example/run/tracks/night_59600_through_59609.track
Output file:                                 /Users/joachim/repos/neosim/example/run/tracksFinal/night_59600_through_59609.track.final
RemoveSubsets:                               true
Short-circuit if possible:                   true
Sort sets by size before set intersection:   false
Keep only longest tracklet(s) per detection: true
Reading infile, starting at Wed Mar 29 13:14:35 2017

Finished reading infile at Wed Mar 29 13:14:35 2017

Reading input took 0.0000000000 seconds.
Building detection-to-track map, starting at Wed Mar 29 13:14:35 2017

Finished detection-to-track map, filtering tracks starting at Wed Mar 29 13:14:35 2017

Finished filtering, writing output starting at Wed Mar 29 13:14:35 2017

Completed after 0.0000000000 seconds.
Finished successfully finished at Wed Mar 29 13:14:35 2017

This process (13379) memory usage: 
------------------------------------------
------------------------------------------

RemoveSubsets:
---------------
Input file:                                  /Users/joachim/repos/neosim/example/run/tracks/night_59601_through_59609.track
Output file:                                 /Users/joachim/repos/neosim/example/run/tracksFinal/night_59601_through_59609.track.final
RemoveSubsets:                               true
Short-circuit if possible:                   true
Sort sets by size before set intersection:   false
Keep only longest tracklet(s) per detection: true
Reading infile, starting at Wed Mar 29 13:14:35 2017

Finished reading infile at Wed Mar 29 13:14:35 2017

Reading input took 0.0000000000 seconds.
Building detection-to-track map, starting at Wed Mar 29 13:14:35 2017

Finished detection-to-track map, filtering tracks starting at Wed Mar 29 13:14:35 2017

Finished filtering, writing output starting at Wed Mar 29 13:14:35 2017

Completed after 0.0000000000 seconds.
Finished successfully finished at Wed Mar 29 13:14:35 2017

This process (13381) memory usage: 
------------------------------------------
------------------------------------------

RemoveSubsets:
---------------
Input file:                                  /Users/joachim/repos/neosim/example/run/tracks/night_59602_through_59609.track
Output file:                                 /Users/joachim/repos/neosim/example/run/tracksFinal/night_59602_through_59609.track.final
RemoveSubsets:                               true
Short-circuit if possible:                   true
Sort sets by size before set intersection:   false
Keep only longest tracklet(s) per detection: true
Reading infile, starting at Wed Mar 29 13:14:35 2017

Finished reading infile at Wed Mar 29 13:14:35 2017

Reading input took 0.0000000000 seconds.
Building detection-to-track map, starting at Wed Mar 29 13:14:35 2017

Finished detection-to-track map, filtering tracks starting at Wed Mar 29 13:14:35 2017

Finished filtering, writing output starting at Wed Mar 29 13:14:35 2017

Completed after 0.0000000000 seconds.
Finished successfully finished at Wed Mar 29 13:14:35 2017

This process (13383) memory usage: 
------------------------------------------
------------------------------------------

RemoveSubsets:
---------------
Input file:                                  /Users/joachim/repos/neosim/example/run/tracks/night_59603_through_59609.track
Output file:                                 /Users/joachim/repos/neosim/example/run/tracksFinal/night_59603_through_59609.track.final
RemoveSubsets:                               true
Short-circuit if possible:                   true
Sort sets by size before set intersection:   false
Keep only longest tracklet(s) per detection: true
Reading infile, starting at Wed Mar 29 13:14:35 2017

Finished reading infile at Wed Mar 29 13:14:35 2017

Reading input took 0.0000000000 seconds.
Building detection-to-track map, starting at Wed Mar 29 13:14:35 2017

Finished detection-to-track map, filtering tracks starting at Wed Mar 29 13:14:35 2017

Finished filtering, writing output starting at Wed Mar 29 13:14:35 2017

Completed after 0.0000000000 seconds.
Finished successfully finished at Wed Mar 29 13:14:35 2017

This process (13385) memory usage: 
------------------------------------------
------------------------------------------

RemoveSubsets:
---------------
Input file:                                  /Users/joachim/repos/neosim/example/run/tracks/night_59604_through_59609.track
Output file:                                 /Users/joachim/repos/neosim/example/run/tracksFinal/night_59604_through_59609.track.final
RemoveSubsets:                               true
Short-circuit if possible:                   true
Sort sets by size before set intersection:   false
Keep only longest tracklet(s) per detection: true
Reading infile, starting at Wed Mar 29 13:14:35 2017

Finished reading infile at Wed Mar 29 13:14:35 2017

Reading input took 0.0000000000 seconds.
Building detection-to-track map, starting at Wed Mar 29 13:14:35 2017

Finished detection-to-track map, filtering tracks starting at Wed Mar 29 13:14:35 2017

Finished filtering, writing output starting at Wed Mar 29 13:14:35 2017

Completed after 0.0000000000 seconds.
Finished successfully finished at Wed Mar 29 13:14:35 2017

This process (13387) memory usage: 
------------------------------------------
------------------------------------------

RemoveSubsets:
---------------
Input file:                                  /Users/joachim/repos/neosim/example/run/tracks/night_59605_through_59609.track
Output file:                                 /Users/joachim/repos/neosim/example/run/tracksFinal/night_59605_through_59609.track.final
RemoveSubsets:                               true
Short-circuit if possible:                   true
Sort sets by size before set intersection:   false
Keep only longest tracklet(s) per detection: true
Reading infile, starting at Wed Mar 29 13:14:35 2017

Finished reading infile at Wed Mar 29 13:14:35 2017

Reading input took 0.0000000000 seconds.
Building detection-to-track map, starting at Wed Mar 29 13:14:35 2017

Finished detection-to-track map, filtering tracks starting at Wed Mar 29 13:14:35 2017

Finished filtering, writing output starting at Wed Mar 29 13:14:35 2017

Completed after 0.0000000000 seconds.
Finished successfully finished at Wed Mar 29 13:14:35 2017

This process (13389) memory usage: 
------------------------------------------
------------------------------------------

RemoveSubsets:
---------------
Input file:                                  /Users/joachim/repos/neosim/example/run/tracks/night_59606_through_59609.track
Output file:                                 /Users/joachim/repos/neosim/example/run/tracksFinal/night_59606_through_59609.track.final
RemoveSubsets:                               true
Short-circuit if possible:                   true
Sort sets by size before set intersection:   false
Keep only longest tracklet(s) per detection: true
Reading infile, starting at Wed Mar 29 13:14:35 2017

Finished reading infile at Wed Mar 29 13:14:35 2017

Reading input took 0.0000000000 seconds.
Building detection-to-track map, starting at Wed Mar 29 13:14:35 2017

Finished detection-to-track map, filtering tracks starting at Wed Mar 29 13:14:35 2017

Finished filtering, writing output starting at Wed Mar 29 13:14:35 2017

Completed after 0.0000000000 seconds.
Finished successfully finished at Wed Mar 29 13:14:35 2017

This process (13391) memory usage: 
------------------------------------------
------------------------------------------

RemoveSubsets:
---------------
Input file:                                  /Users/joachim/repos/neosim/example/run/tracks/night_59607_through_59609.track
Output file:                                 /Users/joachim/repos/neosim/example/run/tracksFinal/night_59607_through_59609.track.final
RemoveSubsets:                               true
Short-circuit if possible:                   true
Sort sets by size before set intersection:   false
Keep only longest tracklet(s) per detection: true
Reading infile, starting at Wed Mar 29 13:14:35 2017

Finished reading infile at Wed Mar 29 13:14:35 2017

Reading input took 0.0000000000 seconds.
Building detection-to-track map, starting at Wed Mar 29 13:14:35 2017

Finished detection-to-track map, filtering tracks starting at Wed Mar 29 13:14:35 2017

Finished filtering, writing output starting at Wed Mar 29 13:14:35 2017

Completed after 0.0000000000 seconds.
Finished successfully finished at Wed Mar 29 13:14:35 2017

This process (13393) memory usage: 
------------------------------------------
------------------------------------------

