RemoveSubsets:
---------------
Input file:                                  /Users/joachim/repos/neosim/example/run/tracks/night_59580_through_59595.track
Output file:                                 /Users/joachim/repos/neosim/example/run/tracksFinal/night_59580_through_59595.track.final
RemoveSubsets:                               true
Short-circuit if possible:                   true
Sort sets by size before set intersection:   false
Keep only longest tracklet(s) per detection: true
Reading infile, starting at Wed Mar 29 09:15:16 2017

Finished reading infile at Wed Mar 29 09:15:16 2017

Reading input took 0.0000000000 seconds.
Building detection-to-track map, starting at Wed Mar 29 09:15:16 2017

Finished detection-to-track map, filtering tracks starting at Wed Mar 29 09:15:16 2017

Finished filtering, writing output starting at Wed Mar 29 09:15:16 2017

Completed after 0.0000000000 seconds.
Finished successfully finished at Wed Mar 29 09:15:16 2017

This process (42834) memory usage: 
------------------------------------------
------------------------------------------

RemoveSubsets:
---------------
Input file:                                  /Users/joachim/repos/neosim/example/run/tracks/night_59581_through_59596.track
Output file:                                 /Users/joachim/repos/neosim/example/run/tracksFinal/night_59581_through_59596.track.final
RemoveSubsets:                               true
Short-circuit if possible:                   true
Sort sets by size before set intersection:   false
Keep only longest tracklet(s) per detection: true
Reading infile, starting at Wed Mar 29 09:15:16 2017

Finished reading infile at Wed Mar 29 09:15:16 2017

Reading input took 0.0000000000 seconds.
Building detection-to-track map, starting at Wed Mar 29 09:15:16 2017

Finished detection-to-track map, filtering tracks starting at Wed Mar 29 09:15:16 2017

Finished filtering, writing output starting at Wed Mar 29 09:15:16 2017

Completed after 0.0000000000 seconds.
Finished successfully finished at Wed Mar 29 09:15:16 2017

This process (42836) memory usage: 
------------------------------------------
------------------------------------------

RemoveSubsets:
---------------
Input file:                                  /Users/joachim/repos/neosim/example/run/tracks/night_59582_through_59597.track
Output file:                                 /Users/joachim/repos/neosim/example/run/tracksFinal/night_59582_through_59597.track.final
RemoveSubsets:                               true
Short-circuit if possible:                   true
Sort sets by size before set intersection:   false
Keep only longest tracklet(s) per detection: true
Reading infile, starting at Wed Mar 29 09:15:16 2017

Finished reading infile at Wed Mar 29 09:15:16 2017

Reading input took 0.0000000000 seconds.
Building detection-to-track map, starting at Wed Mar 29 09:15:16 2017

Finished detection-to-track map, filtering tracks starting at Wed Mar 29 09:15:16 2017

Finished filtering, writing output starting at Wed Mar 29 09:15:16 2017

Completed after 0.0000000000 seconds.
Finished successfully finished at Wed Mar 29 09:15:16 2017

This process (42838) memory usage: 
------------------------------------------
------------------------------------------

RemoveSubsets:
---------------
Input file:                                  /Users/joachim/repos/neosim/example/run/tracks/night_59583_through_59598.track
Output file:                                 /Users/joachim/repos/neosim/example/run/tracksFinal/night_59583_through_59598.track.final
RemoveSubsets:                               true
Short-circuit if possible:                   true
Sort sets by size before set intersection:   false
Keep only longest tracklet(s) per detection: true
Reading infile, starting at Wed Mar 29 09:15:16 2017

Finished reading infile at Wed Mar 29 09:15:16 2017

Reading input took 0.0000000000 seconds.
Building detection-to-track map, starting at Wed Mar 29 09:15:16 2017

Finished detection-to-track map, filtering tracks starting at Wed Mar 29 09:15:16 2017

Finished filtering, writing output starting at Wed Mar 29 09:15:16 2017

Completed after 0.0000000000 seconds.
Finished successfully finished at Wed Mar 29 09:15:16 2017

This process (42840) memory usage: 
------------------------------------------
------------------------------------------

RemoveSubsets:
---------------
Input file:                                  /Users/joachim/repos/neosim/example/run/tracks/night_59584_through_59599.track
Output file:                                 /Users/joachim/repos/neosim/example/run/tracksFinal/night_59584_through_59599.track.final
RemoveSubsets:                               true
Short-circuit if possible:                   true
Sort sets by size before set intersection:   false
Keep only longest tracklet(s) per detection: true
Reading infile, starting at Wed Mar 29 09:15:16 2017

Finished reading infile at Wed Mar 29 09:15:16 2017

Reading input took 0.0000000000 seconds.
Building detection-to-track map, starting at Wed Mar 29 09:15:16 2017

Finished detection-to-track map, filtering tracks starting at Wed Mar 29 09:15:16 2017

Finished filtering, writing output starting at Wed Mar 29 09:15:16 2017

Completed after 0.0000000000 seconds.
Finished successfully finished at Wed Mar 29 09:15:16 2017

This process (42842) memory usage: 
------------------------------------------
------------------------------------------

RemoveSubsets:
---------------
Input file:                                  /Users/joachim/repos/neosim/example/run/tracks/night_59585_through_59600.track
Output file:                                 /Users/joachim/repos/neosim/example/run/tracksFinal/night_59585_through_59600.track.final
RemoveSubsets:                               true
Short-circuit if possible:                   true
Sort sets by size before set intersection:   false
Keep only longest tracklet(s) per detection: true
Reading infile, starting at Wed Mar 29 09:15:16 2017

Finished reading infile at Wed Mar 29 09:15:16 2017

Reading input took 0.0000000000 seconds.
Building detection-to-track map, starting at Wed Mar 29 09:15:16 2017

Finished detection-to-track map, filtering tracks starting at Wed Mar 29 09:15:16 2017

Finished filtering, writing output starting at Wed Mar 29 09:15:16 2017

Completed after 0.0000000000 seconds.
Finished successfully finished at Wed Mar 29 09:15:16 2017

This process (42844) memory usage: 
------------------------------------------
------------------------------------------

RemoveSubsets:
---------------
Input file:                                  /Users/joachim/repos/neosim/example/run/tracks/night_59586_through_59601.track
Output file:                                 /Users/joachim/repos/neosim/example/run/tracksFinal/night_59586_through_59601.track.final
RemoveSubsets:                               true
Short-circuit if possible:                   true
Sort sets by size before set intersection:   false
Keep only longest tracklet(s) per detection: true
Reading infile, starting at Wed Mar 29 09:15:16 2017

Finished reading infile at Wed Mar 29 09:15:16 2017

Reading input took 0.0000000000 seconds.
Building detection-to-track map, starting at Wed Mar 29 09:15:16 2017

Finished detection-to-track map, filtering tracks starting at Wed Mar 29 09:15:16 2017

Finished filtering, writing output starting at Wed Mar 29 09:15:16 2017

Completed after 0.0000000000 seconds.
Finished successfully finished at Wed Mar 29 09:15:16 2017

This process (42846) memory usage: 
------------------------------------------
------------------------------------------

RemoveSubsets:
---------------
Input file:                                  /Users/joachim/repos/neosim/example/run/tracks/night_59587_through_59602.track
Output file:                                 /Users/joachim/repos/neosim/example/run/tracksFinal/night_59587_through_59602.track.final
RemoveSubsets:                               true
Short-circuit if possible:                   true
Sort sets by size before set intersection:   false
Keep only longest tracklet(s) per detection: true
Reading infile, starting at Wed Mar 29 09:15:17 2017

Finished reading infile at Wed Mar 29 09:15:17 2017

Reading input took 0.0000000000 seconds.
Building detection-to-track map, starting at Wed Mar 29 09:15:17 2017

Finished detection-to-track map, filtering tracks starting at Wed Mar 29 09:15:17 2017

Finished filtering, writing output starting at Wed Mar 29 09:15:17 2017

Completed after 0.0000000000 seconds.
Finished successfully finished at Wed Mar 29 09:15:17 2017

This process (42848) memory usage: 
------------------------------------------
------------------------------------------

RemoveSubsets:
---------------
Input file:                                  /Users/joachim/repos/neosim/example/run/tracks/night_59588_through_59603.track
Output file:                                 /Users/joachim/repos/neosim/example/run/tracksFinal/night_59588_through_59603.track.final
RemoveSubsets:                               true
Short-circuit if possible:                   true
Sort sets by size before set intersection:   false
Keep only longest tracklet(s) per detection: true
Reading infile, starting at Wed Mar 29 09:15:17 2017

Finished reading infile at Wed Mar 29 09:15:17 2017

Reading input took 0.0000000000 seconds.
Building detection-to-track map, starting at Wed Mar 29 09:15:17 2017

Finished detection-to-track map, filtering tracks starting at Wed Mar 29 09:15:17 2017

Finished filtering, writing output starting at Wed Mar 29 09:15:17 2017

Completed after 0.0000000000 seconds.
Finished successfully finished at Wed Mar 29 09:15:17 2017

This process (42850) memory usage: 
------------------------------------------
------------------------------------------

RemoveSubsets:
---------------
Input file:                                  /Users/joachim/repos/neosim/example/run/tracks/night_59589_through_59604.track
Output file:                                 /Users/joachim/repos/neosim/example/run/tracksFinal/night_59589_through_59604.track.final
RemoveSubsets:                               true
Short-circuit if possible:                   true
Sort sets by size before set intersection:   false
Keep only longest tracklet(s) per detection: true
Reading infile, starting at Wed Mar 29 09:15:17 2017

Finished reading infile at Wed Mar 29 09:15:17 2017

Reading input took 0.0000000000 seconds.
Building detection-to-track map, starting at Wed Mar 29 09:15:17 2017

Finished detection-to-track map, filtering tracks starting at Wed Mar 29 09:15:17 2017

Finished filtering, writing output starting at Wed Mar 29 09:15:17 2017

Completed after 0.0000000000 seconds.
Finished successfully finished at Wed Mar 29 09:15:17 2017

This process (42852) memory usage: 
------------------------------------------
------------------------------------------

RemoveSubsets:
---------------
Input file:                                  /Users/joachim/repos/neosim/example/run/tracks/night_59590_through_59605.track
Output file:                                 /Users/joachim/repos/neosim/example/run/tracksFinal/night_59590_through_59605.track.final
RemoveSubsets:                               true
Short-circuit if possible:                   true
Sort sets by size before set intersection:   false
Keep only longest tracklet(s) per detection: true
Reading infile, starting at Wed Mar 29 09:15:17 2017

Finished reading infile at Wed Mar 29 09:15:17 2017

Reading input took 0.0000000000 seconds.
Building detection-to-track map, starting at Wed Mar 29 09:15:17 2017

Finished detection-to-track map, filtering tracks starting at Wed Mar 29 09:15:17 2017

Finished filtering, writing output starting at Wed Mar 29 09:15:17 2017

Completed after 0.0000000000 seconds.
Finished successfully finished at Wed Mar 29 09:15:17 2017

This process (42854) memory usage: 
------------------------------------------
------------------------------------------

RemoveSubsets:
---------------
Input file:                                  /Users/joachim/repos/neosim/example/run/tracks/night_59591_through_59606.track
Output file:                                 /Users/joachim/repos/neosim/example/run/tracksFinal/night_59591_through_59606.track.final
RemoveSubsets:                               true
Short-circuit if possible:                   true
Sort sets by size before set intersection:   false
Keep only longest tracklet(s) per detection: true
Reading infile, starting at Wed Mar 29 09:15:17 2017

Finished reading infile at Wed Mar 29 09:15:17 2017

Reading input took 0.0000000000 seconds.
Building detection-to-track map, starting at Wed Mar 29 09:15:17 2017

Finished detection-to-track map, filtering tracks starting at Wed Mar 29 09:15:17 2017

Finished filtering, writing output starting at Wed Mar 29 09:15:17 2017

Completed after 0.0000000000 seconds.
Finished successfully finished at Wed Mar 29 09:15:17 2017

This process (42856) memory usage: 
------------------------------------------
------------------------------------------

RemoveSubsets:
---------------
Input file:                                  /Users/joachim/repos/neosim/example/run/tracks/night_59592_through_59607.track
Output file:                                 /Users/joachim/repos/neosim/example/run/tracksFinal/night_59592_through_59607.track.final
RemoveSubsets:                               true
Short-circuit if possible:                   true
Sort sets by size before set intersection:   false
Keep only longest tracklet(s) per detection: true
Reading infile, starting at Wed Mar 29 09:15:17 2017

Finished reading infile at Wed Mar 29 09:15:17 2017

Reading input took 0.0000000000 seconds.
Building detection-to-track map, starting at Wed Mar 29 09:15:17 2017

Finished detection-to-track map, filtering tracks starting at Wed Mar 29 09:15:17 2017

Finished filtering, writing output starting at Wed Mar 29 09:15:17 2017

Completed after 0.0000000000 seconds.
Finished successfully finished at Wed Mar 29 09:15:17 2017

This process (42858) memory usage: 
------------------------------------------
------------------------------------------

RemoveSubsets:
---------------
Input file:                                  /Users/joachim/repos/neosim/example/run/tracks/night_59593_through_59608.track
Output file:                                 /Users/joachim/repos/neosim/example/run/tracksFinal/night_59593_through_59608.track.final
RemoveSubsets:                               true
Short-circuit if possible:                   true
Sort sets by size before set intersection:   false
Keep only longest tracklet(s) per detection: true
Reading infile, starting at Wed Mar 29 09:15:17 2017

Finished reading infile at Wed Mar 29 09:15:17 2017

Reading input took 0.0000000000 seconds.
Building detection-to-track map, starting at Wed Mar 29 09:15:17 2017

Finished detection-to-track map, filtering tracks starting at Wed Mar 29 09:15:17 2017

Finished filtering, writing output starting at Wed Mar 29 09:15:17 2017

Completed after 0.0000000000 seconds.
Finished successfully finished at Wed Mar 29 09:15:17 2017

This process (42860) memory usage: 
------------------------------------------
------------------------------------------

RemoveSubsets:
---------------
Input file:                                  /Users/joachim/repos/neosim/example/run/tracks/night_59594_through_59609.track
Output file:                                 /Users/joachim/repos/neosim/example/run/tracksFinal/night_59594_through_59609.track.final
RemoveSubsets:                               true
Short-circuit if possible:                   true
Sort sets by size before set intersection:   false
Keep only longest tracklet(s) per detection: true
Reading infile, starting at Wed Mar 29 09:15:17 2017

Finished reading infile at Wed Mar 29 09:15:17 2017

Reading input took 0.0000000000 seconds.
Building detection-to-track map, starting at Wed Mar 29 09:15:17 2017

Finished detection-to-track map, filtering tracks starting at Wed Mar 29 09:15:17 2017

Finished filtering, writing output starting at Wed Mar 29 09:15:17 2017

Completed after 0.0000000000 seconds.
Finished successfully finished at Wed Mar 29 09:15:17 2017

This process (42862) memory usage: 
------------------------------------------
------------------------------------------

RemoveSubsets:
---------------
Input file:                                  /Users/joachim/repos/neosim/example/run/tracks/night_59595_through_59609.track
Output file:                                 /Users/joachim/repos/neosim/example/run/tracksFinal/night_59595_through_59609.track.final
RemoveSubsets:                               true
Short-circuit if possible:                   true
Sort sets by size before set intersection:   false
Keep only longest tracklet(s) per detection: true
Reading infile, starting at Wed Mar 29 09:15:17 2017

Finished reading infile at Wed Mar 29 09:15:17 2017

Reading input took 0.0000000000 seconds.
Building detection-to-track map, starting at Wed Mar 29 09:15:17 2017

Finished detection-to-track map, filtering tracks starting at Wed Mar 29 09:15:17 2017

Finished filtering, writing output starting at Wed Mar 29 09:15:17 2017

Completed after 0.0000000000 seconds.
Finished successfully finished at Wed Mar 29 09:15:17 2017

This process (42864) memory usage: 
------------------------------------------
------------------------------------------

RemoveSubsets:
---------------
Input file:                                  /Users/joachim/repos/neosim/example/run/tracks/night_59596_through_59609.track
Output file:                                 /Users/joachim/repos/neosim/example/run/tracksFinal/night_59596_through_59609.track.final
RemoveSubsets:                               true
Short-circuit if possible:                   true
Sort sets by size before set intersection:   false
Keep only longest tracklet(s) per detection: true
Reading infile, starting at Wed Mar 29 09:15:17 2017

Finished reading infile at Wed Mar 29 09:15:17 2017

Reading input took 0.0000000000 seconds.
Building detection-to-track map, starting at Wed Mar 29 09:15:17 2017

Finished detection-to-track map, filtering tracks starting at Wed Mar 29 09:15:17 2017

Finished filtering, writing output starting at Wed Mar 29 09:15:17 2017

Completed after 0.0000000000 seconds.
Finished successfully finished at Wed Mar 29 09:15:17 2017

This process (42866) memory usage: 
------------------------------------------
------------------------------------------

RemoveSubsets:
---------------
Input file:                                  /Users/joachim/repos/neosim/example/run/tracks/night_59597_through_59609.track
Output file:                                 /Users/joachim/repos/neosim/example/run/tracksFinal/night_59597_through_59609.track.final
RemoveSubsets:                               true
Short-circuit if possible:                   true
Sort sets by size before set intersection:   false
Keep only longest tracklet(s) per detection: true
Reading infile, starting at Wed Mar 29 09:15:17 2017

Finished reading infile at Wed Mar 29 09:15:17 2017

Reading input took 0.0000000000 seconds.
Building detection-to-track map, starting at Wed Mar 29 09:15:17 2017

Finished detection-to-track map, filtering tracks starting at Wed Mar 29 09:15:17 2017

Finished filtering, writing output starting at Wed Mar 29 09:15:17 2017

Completed after 0.0000000000 seconds.
Finished successfully finished at Wed Mar 29 09:15:17 2017

This process (42868) memory usage: 
------------------------------------------
------------------------------------------

RemoveSubsets:
---------------
Input file:                                  /Users/joachim/repos/neosim/example/run/tracks/night_59598_through_59609.track
Output file:                                 /Users/joachim/repos/neosim/example/run/tracksFinal/night_59598_through_59609.track.final
RemoveSubsets:                               true
Short-circuit if possible:                   true
Sort sets by size before set intersection:   false
Keep only longest tracklet(s) per detection: true
Reading infile, starting at Wed Mar 29 09:15:17 2017

Finished reading infile at Wed Mar 29 09:15:17 2017

Reading input took 0.0000000000 seconds.
Building detection-to-track map, starting at Wed Mar 29 09:15:17 2017

Finished detection-to-track map, filtering tracks starting at Wed Mar 29 09:15:17 2017

Finished filtering, writing output starting at Wed Mar 29 09:15:17 2017

Completed after 0.0000000000 seconds.
Finished successfully finished at Wed Mar 29 09:15:17 2017

This process (42870) memory usage: 
------------------------------------------
------------------------------------------

RemoveSubsets:
---------------
Input file:                                  /Users/joachim/repos/neosim/example/run/tracks/night_59599_through_59609.track
Output file:                                 /Users/joachim/repos/neosim/example/run/tracksFinal/night_59599_through_59609.track.final
RemoveSubsets:                               true
Short-circuit if possible:                   true
Sort sets by size before set intersection:   false
Keep only longest tracklet(s) per detection: true
Reading infile, starting at Wed Mar 29 09:15:17 2017

Finished reading infile at Wed Mar 29 09:15:17 2017

Reading input took 0.0000000000 seconds.
Building detection-to-track map, starting at Wed Mar 29 09:15:17 2017

Finished detection-to-track map, filtering tracks starting at Wed Mar 29 09:15:17 2017

Finished filtering, writing output starting at Wed Mar 29 09:15:17 2017

Completed after 0.0000000000 seconds.
Finished successfully finished at Wed Mar 29 09:15:17 2017

This process (42872) memory usage: 
------------------------------------------
------------------------------------------

RemoveSubsets:
---------------
Input file:                                  /Users/joachim/repos/neosim/example/run/tracks/night_59600_through_59609.track
Output file:                                 /Users/joachim/repos/neosim/example/run/tracksFinal/night_59600_through_59609.track.final
RemoveSubsets:                               true
Short-circuit if possible:                   true
Sort sets by size before set intersection:   false
Keep only longest tracklet(s) per detection: true
Reading infile, starting at Wed Mar 29 09:15:17 2017

Finished reading infile at Wed Mar 29 09:15:17 2017

Reading input took 0.0000000000 seconds.
Building detection-to-track map, starting at Wed Mar 29 09:15:17 2017

Finished detection-to-track map, filtering tracks starting at Wed Mar 29 09:15:17 2017

Finished filtering, writing output starting at Wed Mar 29 09:15:17 2017

Completed after 0.0000000000 seconds.
Finished successfully finished at Wed Mar 29 09:15:17 2017

This process (42874) memory usage: 
------------------------------------------
------------------------------------------

RemoveSubsets:
---------------
Input file:                                  /Users/joachim/repos/neosim/example/run/tracks/night_59601_through_59609.track
Output file:                                 /Users/joachim/repos/neosim/example/run/tracksFinal/night_59601_through_59609.track.final
RemoveSubsets:                               true
Short-circuit if possible:                   true
Sort sets by size before set intersection:   false
Keep only longest tracklet(s) per detection: true
Reading infile, starting at Wed Mar 29 09:15:17 2017

Finished reading infile at Wed Mar 29 09:15:17 2017

Reading input took 0.0000000000 seconds.
Building detection-to-track map, starting at Wed Mar 29 09:15:17 2017

Finished detection-to-track map, filtering tracks starting at Wed Mar 29 09:15:17 2017

Finished filtering, writing output starting at Wed Mar 29 09:15:17 2017

Completed after 0.0000000000 seconds.
Finished successfully finished at Wed Mar 29 09:15:17 2017

This process (42876) memory usage: 
------------------------------------------
------------------------------------------

RemoveSubsets:
---------------
Input file:                                  /Users/joachim/repos/neosim/example/run/tracks/night_59602_through_59609.track
Output file:                                 /Users/joachim/repos/neosim/example/run/tracksFinal/night_59602_through_59609.track.final
RemoveSubsets:                               true
Short-circuit if possible:                   true
Sort sets by size before set intersection:   false
Keep only longest tracklet(s) per detection: true
Reading infile, starting at Wed Mar 29 09:15:17 2017

Finished reading infile at Wed Mar 29 09:15:17 2017

Reading input took 0.0000000000 seconds.
Building detection-to-track map, starting at Wed Mar 29 09:15:17 2017

Finished detection-to-track map, filtering tracks starting at Wed Mar 29 09:15:17 2017

Finished filtering, writing output starting at Wed Mar 29 09:15:17 2017

Completed after 0.0000000000 seconds.
Finished successfully finished at Wed Mar 29 09:15:17 2017

This process (42878) memory usage: 
------------------------------------------
------------------------------------------

RemoveSubsets:
---------------
Input file:                                  /Users/joachim/repos/neosim/example/run/tracks/night_59603_through_59609.track
Output file:                                 /Users/joachim/repos/neosim/example/run/tracksFinal/night_59603_through_59609.track.final
RemoveSubsets:                               true
Short-circuit if possible:                   true
Sort sets by size before set intersection:   false
Keep only longest tracklet(s) per detection: true
Reading infile, starting at Wed Mar 29 09:15:17 2017

Finished reading infile at Wed Mar 29 09:15:17 2017

Reading input took 0.0000000000 seconds.
Building detection-to-track map, starting at Wed Mar 29 09:15:17 2017

Finished detection-to-track map, filtering tracks starting at Wed Mar 29 09:15:17 2017

Finished filtering, writing output starting at Wed Mar 29 09:15:17 2017

Completed after 0.0000000000 seconds.
Finished successfully finished at Wed Mar 29 09:15:17 2017

This process (42880) memory usage: 
------------------------------------------
------------------------------------------

RemoveSubsets:
---------------
Input file:                                  /Users/joachim/repos/neosim/example/run/tracks/night_59604_through_59609.track
Output file:                                 /Users/joachim/repos/neosim/example/run/tracksFinal/night_59604_through_59609.track.final
RemoveSubsets:                               true
Short-circuit if possible:                   true
Sort sets by size before set intersection:   false
Keep only longest tracklet(s) per detection: true
Reading infile, starting at Wed Mar 29 09:15:17 2017

Finished reading infile at Wed Mar 29 09:15:17 2017

Reading input took 0.0000000000 seconds.
Building detection-to-track map, starting at Wed Mar 29 09:15:17 2017

Finished detection-to-track map, filtering tracks starting at Wed Mar 29 09:15:17 2017

Finished filtering, writing output starting at Wed Mar 29 09:15:17 2017

Completed after 0.0000000000 seconds.
Finished successfully finished at Wed Mar 29 09:15:17 2017

This process (42882) memory usage: 
------------------------------------------
------------------------------------------

RemoveSubsets:
---------------
Input file:                                  /Users/joachim/repos/neosim/example/run/tracks/night_59605_through_59609.track
Output file:                                 /Users/joachim/repos/neosim/example/run/tracksFinal/night_59605_through_59609.track.final
RemoveSubsets:                               true
Short-circuit if possible:                   true
Sort sets by size before set intersection:   false
Keep only longest tracklet(s) per detection: true
Reading infile, starting at Wed Mar 29 09:15:17 2017

Finished reading infile at Wed Mar 29 09:15:17 2017

Reading input took 0.0000000000 seconds.
Building detection-to-track map, starting at Wed Mar 29 09:15:17 2017

Finished detection-to-track map, filtering tracks starting at Wed Mar 29 09:15:17 2017

Finished filtering, writing output starting at Wed Mar 29 09:15:17 2017

Completed after 0.0000000000 seconds.
Finished successfully finished at Wed Mar 29 09:15:17 2017

This process (42884) memory usage: 
------------------------------------------
------------------------------------------

RemoveSubsets:
---------------
Input file:                                  /Users/joachim/repos/neosim/example/run/tracks/night_59606_through_59609.track
Output file:                                 /Users/joachim/repos/neosim/example/run/tracksFinal/night_59606_through_59609.track.final
RemoveSubsets:                               true
Short-circuit if possible:                   true
Sort sets by size before set intersection:   false
Keep only longest tracklet(s) per detection: true
Reading infile, starting at Wed Mar 29 09:15:17 2017

Finished reading infile at Wed Mar 29 09:15:17 2017

Reading input took 0.0000000000 seconds.
Building detection-to-track map, starting at Wed Mar 29 09:15:17 2017

Finished detection-to-track map, filtering tracks starting at Wed Mar 29 09:15:17 2017

Finished filtering, writing output starting at Wed Mar 29 09:15:17 2017

Completed after 0.0000000000 seconds.
Finished successfully finished at Wed Mar 29 09:15:17 2017

This process (42886) memory usage: 
------------------------------------------
------------------------------------------

RemoveSubsets:
---------------
Input file:                                  /Users/joachim/repos/neosim/example/run/tracks/night_59607_through_59609.track
Output file:                                 /Users/joachim/repos/neosim/example/run/tracksFinal/night_59607_through_59609.track.final
RemoveSubsets:                               true
Short-circuit if possible:                   true
Sort sets by size before set intersection:   false
Keep only longest tracklet(s) per detection: true
Reading infile, starting at Wed Mar 29 09:15:17 2017

Finished reading infile at Wed Mar 29 09:15:17 2017

Reading input took 0.0000000000 seconds.
Building detection-to-track map, starting at Wed Mar 29 09:15:17 2017

Finished detection-to-track map, filtering tracks starting at Wed Mar 29 09:15:17 2017

Finished filtering, writing output starting at Wed Mar 29 09:15:17 2017

Completed after 0.0000000000 seconds.
Finished successfully finished at Wed Mar 29 09:15:17 2017

This process (42888) memory usage: 
------------------------------------------
------------------------------------------

