RemoveSubsets:
---------------
Input file:                                  controlRun/source2/trackletsPurified/59580.tracklets.purified
Output file:                                 controlRun/source2/trackletsFinal/59580.tracklets.final
RemoveSubsets:                               false
Short-circuit if possible:                   true
Sort sets by size before set intersection:   false
Keep only longest tracklet(s) per detection: false
Reading infile, starting at Thu Feb 18 13:33:34 2016

Finished reading infile at Thu Feb 18 13:33:34 2016

Reading input took 0.0000000000 seconds.
Finished filtering, writing output starting at Thu Feb 18 13:33:34 2016

Completed after 0.0000000000 seconds.
Finished successfully finished at Thu Feb 18 13:33:34 2016

This process (46671) memory usage: 
------------------------------------------
------------------------------------------

RemoveSubsets:
---------------
Input file:                                  controlRun/source2/trackletsPurified/59581.tracklets.purified
Output file:                                 controlRun/source2/trackletsFinal/59581.tracklets.final
RemoveSubsets:                               false
Short-circuit if possible:                   true
Sort sets by size before set intersection:   false
Keep only longest tracklet(s) per detection: false
Reading infile, starting at Thu Feb 18 13:33:34 2016

Finished reading infile at Thu Feb 18 13:33:34 2016

Reading input took 0.0000000000 seconds.
Finished filtering, writing output starting at Thu Feb 18 13:33:34 2016

Completed after 0.0000000000 seconds.
Finished successfully finished at Thu Feb 18 13:33:34 2016

This process (46673) memory usage: 
------------------------------------------
------------------------------------------

RemoveSubsets:
---------------
Input file:                                  controlRun/source2/trackletsPurified/59582.tracklets.purified
Output file:                                 controlRun/source2/trackletsFinal/59582.tracklets.final
RemoveSubsets:                               false
Short-circuit if possible:                   true
Sort sets by size before set intersection:   false
Keep only longest tracklet(s) per detection: false
Reading infile, starting at Thu Feb 18 13:33:34 2016

Finished reading infile at Thu Feb 18 13:33:34 2016

Reading input took 0.0000000000 seconds.
Finished filtering, writing output starting at Thu Feb 18 13:33:34 2016

Completed after 0.0000000000 seconds.
Finished successfully finished at Thu Feb 18 13:33:34 2016

This process (46675) memory usage: 
------------------------------------------
------------------------------------------

RemoveSubsets:
---------------
Input file:                                  controlRun/source2/trackletsPurified/59583.tracklets.purified
Output file:                                 controlRun/source2/trackletsFinal/59583.tracklets.final
RemoveSubsets:                               false
Short-circuit if possible:                   true
Sort sets by size before set intersection:   false
Keep only longest tracklet(s) per detection: false
Reading infile, starting at Thu Feb 18 13:33:34 2016

Finished reading infile at Thu Feb 18 13:33:34 2016

Reading input took 0.0000000000 seconds.
Finished filtering, writing output starting at Thu Feb 18 13:33:34 2016

Completed after 0.0000000000 seconds.
Finished successfully finished at Thu Feb 18 13:33:34 2016

This process (46677) memory usage: 
------------------------------------------
------------------------------------------

RemoveSubsets:
---------------
Input file:                                  controlRun/source2/trackletsPurified/59584.tracklets.purified
Output file:                                 controlRun/source2/trackletsFinal/59584.tracklets.final
RemoveSubsets:                               false
Short-circuit if possible:                   true
Sort sets by size before set intersection:   false
Keep only longest tracklet(s) per detection: false
Reading infile, starting at Thu Feb 18 13:33:34 2016

Finished reading infile at Thu Feb 18 13:33:34 2016

Reading input took 0.0000000000 seconds.
Finished filtering, writing output starting at Thu Feb 18 13:33:34 2016

Completed after 0.0000000000 seconds.
Finished successfully finished at Thu Feb 18 13:33:34 2016

This process (46679) memory usage: 
------------------------------------------
------------------------------------------

RemoveSubsets:
---------------
Input file:                                  controlRun/source2/trackletsPurified/59585.tracklets.purified
Output file:                                 controlRun/source2/trackletsFinal/59585.tracklets.final
RemoveSubsets:                               false
Short-circuit if possible:                   true
Sort sets by size before set intersection:   false
Keep only longest tracklet(s) per detection: false
Reading infile, starting at Thu Feb 18 13:33:34 2016

Finished reading infile at Thu Feb 18 13:33:34 2016

Reading input took 0.0000000000 seconds.
Finished filtering, writing output starting at Thu Feb 18 13:33:34 2016

Completed after 0.0000000000 seconds.
Finished successfully finished at Thu Feb 18 13:33:34 2016

This process (46681) memory usage: 
------------------------------------------
------------------------------------------

RemoveSubsets:
---------------
Input file:                                  controlRun/source2/trackletsPurified/59586.tracklets.purified
Output file:                                 controlRun/source2/trackletsFinal/59586.tracklets.final
RemoveSubsets:                               false
Short-circuit if possible:                   true
Sort sets by size before set intersection:   false
Keep only longest tracklet(s) per detection: false
Reading infile, starting at Thu Feb 18 13:33:34 2016

Finished reading infile at Thu Feb 18 13:33:34 2016

Reading input took 0.0000000000 seconds.
Finished filtering, writing output starting at Thu Feb 18 13:33:34 2016

Completed after 0.0000000000 seconds.
Finished successfully finished at Thu Feb 18 13:33:34 2016

This process (46683) memory usage: 
------------------------------------------
------------------------------------------

RemoveSubsets:
---------------
Input file:                                  controlRun/source2/trackletsPurified/59587.tracklets.purified
Output file:                                 controlRun/source2/trackletsFinal/59587.tracklets.final
RemoveSubsets:                               false
Short-circuit if possible:                   true
Sort sets by size before set intersection:   false
Keep only longest tracklet(s) per detection: false
Reading infile, starting at Thu Feb 18 13:33:34 2016

Finished reading infile at Thu Feb 18 13:33:34 2016

Reading input took 0.0000000000 seconds.
Finished filtering, writing output starting at Thu Feb 18 13:33:34 2016

Completed after 0.0000000000 seconds.
Finished successfully finished at Thu Feb 18 13:33:34 2016

This process (46685) memory usage: 
------------------------------------------
------------------------------------------

RemoveSubsets:
---------------
Input file:                                  controlRun/source2/trackletsPurified/59588.tracklets.purified
Output file:                                 controlRun/source2/trackletsFinal/59588.tracklets.final
RemoveSubsets:                               false
Short-circuit if possible:                   true
Sort sets by size before set intersection:   false
Keep only longest tracklet(s) per detection: false
Reading infile, starting at Thu Feb 18 13:33:34 2016

Finished reading infile at Thu Feb 18 13:33:34 2016

Reading input took 0.0000000000 seconds.
Finished filtering, writing output starting at Thu Feb 18 13:33:34 2016

Completed after 0.0000000000 seconds.
Finished successfully finished at Thu Feb 18 13:33:34 2016

This process (46687) memory usage: 
------------------------------------------
------------------------------------------

RemoveSubsets:
---------------
Input file:                                  controlRun/source2/trackletsPurified/59589.tracklets.purified
Output file:                                 controlRun/source2/trackletsFinal/59589.tracklets.final
RemoveSubsets:                               false
Short-circuit if possible:                   true
Sort sets by size before set intersection:   false
Keep only longest tracklet(s) per detection: false
Reading infile, starting at Thu Feb 18 13:33:34 2016

Finished reading infile at Thu Feb 18 13:33:34 2016

Reading input took 0.0000000000 seconds.
Finished filtering, writing output starting at Thu Feb 18 13:33:34 2016

Completed after 0.0000000000 seconds.
Finished successfully finished at Thu Feb 18 13:33:34 2016

This process (46689) memory usage: 
------------------------------------------
------------------------------------------

RemoveSubsets:
---------------
Input file:                                  controlRun/source2/trackletsPurified/59590.tracklets.purified
Output file:                                 controlRun/source2/trackletsFinal/59590.tracklets.final
RemoveSubsets:                               false
Short-circuit if possible:                   true
Sort sets by size before set intersection:   false
Keep only longest tracklet(s) per detection: false
Reading infile, starting at Thu Feb 18 13:33:34 2016

Finished reading infile at Thu Feb 18 13:33:34 2016

Reading input took 0.0000000000 seconds.
Finished filtering, writing output starting at Thu Feb 18 13:33:34 2016

Completed after 0.0000000000 seconds.
Finished successfully finished at Thu Feb 18 13:33:34 2016

This process (46691) memory usage: 
------------------------------------------
------------------------------------------

RemoveSubsets:
---------------
Input file:                                  controlRun/source2/trackletsPurified/59591.tracklets.purified
Output file:                                 controlRun/source2/trackletsFinal/59591.tracklets.final
RemoveSubsets:                               false
Short-circuit if possible:                   true
Sort sets by size before set intersection:   false
Keep only longest tracklet(s) per detection: false
Reading infile, starting at Thu Feb 18 13:33:34 2016

Finished reading infile at Thu Feb 18 13:33:34 2016

Reading input took 0.0000000000 seconds.
Finished filtering, writing output starting at Thu Feb 18 13:33:34 2016

Completed after 0.0000000000 seconds.
Finished successfully finished at Thu Feb 18 13:33:34 2016

This process (46693) memory usage: 
------------------------------------------
------------------------------------------

RemoveSubsets:
---------------
Input file:                                  controlRun/source2/trackletsPurified/59592.tracklets.purified
Output file:                                 controlRun/source2/trackletsFinal/59592.tracklets.final
RemoveSubsets:                               false
Short-circuit if possible:                   true
Sort sets by size before set intersection:   false
Keep only longest tracklet(s) per detection: false
Reading infile, starting at Thu Feb 18 13:33:34 2016

Finished reading infile at Thu Feb 18 13:33:34 2016

Reading input took 0.0000000000 seconds.
Finished filtering, writing output starting at Thu Feb 18 13:33:34 2016

Completed after 0.0000000000 seconds.
Finished successfully finished at Thu Feb 18 13:33:34 2016

This process (46695) memory usage: 
------------------------------------------
------------------------------------------

RemoveSubsets:
---------------
Input file:                                  controlRun/source2/trackletsPurified/59593.tracklets.purified
Output file:                                 controlRun/source2/trackletsFinal/59593.tracklets.final
RemoveSubsets:                               false
Short-circuit if possible:                   true
Sort sets by size before set intersection:   false
Keep only longest tracklet(s) per detection: false
Reading infile, starting at Thu Feb 18 13:33:34 2016

Finished reading infile at Thu Feb 18 13:33:34 2016

Reading input took 0.0000000000 seconds.
Finished filtering, writing output starting at Thu Feb 18 13:33:34 2016

Completed after 0.0000000000 seconds.
Finished successfully finished at Thu Feb 18 13:33:34 2016

This process (46697) memory usage: 
------------------------------------------
------------------------------------------

RemoveSubsets:
---------------
Input file:                                  controlRun/source2/trackletsPurified/59594.tracklets.purified
Output file:                                 controlRun/source2/trackletsFinal/59594.tracklets.final
RemoveSubsets:                               false
Short-circuit if possible:                   true
Sort sets by size before set intersection:   false
Keep only longest tracklet(s) per detection: false
Reading infile, starting at Thu Feb 18 13:33:34 2016

Finished reading infile at Thu Feb 18 13:33:34 2016

Reading input took 0.0000000000 seconds.
Finished filtering, writing output starting at Thu Feb 18 13:33:34 2016

Completed after 0.0000000000 seconds.
Finished successfully finished at Thu Feb 18 13:33:34 2016

This process (46699) memory usage: 
------------------------------------------
------------------------------------------

RemoveSubsets:
---------------
Input file:                                  controlRun/source2/trackletsPurified/59595.tracklets.purified
Output file:                                 controlRun/source2/trackletsFinal/59595.tracklets.final
RemoveSubsets:                               false
Short-circuit if possible:                   true
Sort sets by size before set intersection:   false
Keep only longest tracklet(s) per detection: false
Reading infile, starting at Thu Feb 18 13:33:34 2016

Finished reading infile at Thu Feb 18 13:33:34 2016

Reading input took 0.0000000000 seconds.
Finished filtering, writing output starting at Thu Feb 18 13:33:34 2016

Completed after 0.0000000000 seconds.
Finished successfully finished at Thu Feb 18 13:33:34 2016

This process (46701) memory usage: 
------------------------------------------
------------------------------------------

RemoveSubsets:
---------------
Input file:                                  controlRun/source2/trackletsPurified/59596.tracklets.purified
Output file:                                 controlRun/source2/trackletsFinal/59596.tracklets.final
RemoveSubsets:                               false
Short-circuit if possible:                   true
Sort sets by size before set intersection:   false
Keep only longest tracklet(s) per detection: false
Reading infile, starting at Thu Feb 18 13:33:34 2016

Finished reading infile at Thu Feb 18 13:33:34 2016

Reading input took 0.0000000000 seconds.
Finished filtering, writing output starting at Thu Feb 18 13:33:34 2016

Completed after 0.0000000000 seconds.
Finished successfully finished at Thu Feb 18 13:33:34 2016

This process (46703) memory usage: 
------------------------------------------
------------------------------------------

RemoveSubsets:
---------------
Input file:                                  controlRun/source2/trackletsPurified/59597.tracklets.purified
Output file:                                 controlRun/source2/trackletsFinal/59597.tracklets.final
RemoveSubsets:                               false
Short-circuit if possible:                   true
Sort sets by size before set intersection:   false
Keep only longest tracklet(s) per detection: false
Reading infile, starting at Thu Feb 18 13:33:34 2016

Finished reading infile at Thu Feb 18 13:33:34 2016

Reading input took 0.0000000000 seconds.
Finished filtering, writing output starting at Thu Feb 18 13:33:34 2016

Completed after 0.0000000000 seconds.
Finished successfully finished at Thu Feb 18 13:33:34 2016

This process (46705) memory usage: 
------------------------------------------
------------------------------------------

RemoveSubsets:
---------------
Input file:                                  controlRun/source2/trackletsPurified/59598.tracklets.purified
Output file:                                 controlRun/source2/trackletsFinal/59598.tracklets.final
RemoveSubsets:                               false
Short-circuit if possible:                   true
Sort sets by size before set intersection:   false
Keep only longest tracklet(s) per detection: false
Reading infile, starting at Thu Feb 18 13:33:34 2016

Finished reading infile at Thu Feb 18 13:33:34 2016

Reading input took 0.0000000000 seconds.
Finished filtering, writing output starting at Thu Feb 18 13:33:34 2016

Completed after 0.0000000000 seconds.
Finished successfully finished at Thu Feb 18 13:33:34 2016

This process (46707) memory usage: 
------------------------------------------
------------------------------------------

RemoveSubsets:
---------------
Input file:                                  controlRun/source2/trackletsPurified/59599.tracklets.purified
Output file:                                 controlRun/source2/trackletsFinal/59599.tracklets.final
RemoveSubsets:                               false
Short-circuit if possible:                   true
Sort sets by size before set intersection:   false
Keep only longest tracklet(s) per detection: false
Reading infile, starting at Thu Feb 18 13:33:34 2016

Finished reading infile at Thu Feb 18 13:33:34 2016

Reading input took 0.0000000000 seconds.
Finished filtering, writing output starting at Thu Feb 18 13:33:34 2016

Completed after 0.0000000000 seconds.
Finished successfully finished at Thu Feb 18 13:33:34 2016

This process (46709) memory usage: 
------------------------------------------
------------------------------------------

RemoveSubsets:
---------------
Input file:                                  controlRun/source2/trackletsPurified/59600.tracklets.purified
Output file:                                 controlRun/source2/trackletsFinal/59600.tracklets.final
RemoveSubsets:                               false
Short-circuit if possible:                   true
Sort sets by size before set intersection:   false
Keep only longest tracklet(s) per detection: false
Reading infile, starting at Thu Feb 18 13:33:34 2016

Finished reading infile at Thu Feb 18 13:33:34 2016

Reading input took 0.0000000000 seconds.
Finished filtering, writing output starting at Thu Feb 18 13:33:34 2016

Completed after 0.0000000000 seconds.
Finished successfully finished at Thu Feb 18 13:33:34 2016

This process (46711) memory usage: 
------------------------------------------
------------------------------------------

RemoveSubsets:
---------------
Input file:                                  controlRun/source2/trackletsPurified/59601.tracklets.purified
Output file:                                 controlRun/source2/trackletsFinal/59601.tracklets.final
RemoveSubsets:                               false
Short-circuit if possible:                   true
Sort sets by size before set intersection:   false
Keep only longest tracklet(s) per detection: false
Reading infile, starting at Thu Feb 18 13:33:34 2016

Finished reading infile at Thu Feb 18 13:33:34 2016

Reading input took 0.0000000000 seconds.
Finished filtering, writing output starting at Thu Feb 18 13:33:34 2016

Completed after 0.0000000000 seconds.
Finished successfully finished at Thu Feb 18 13:33:34 2016

This process (46713) memory usage: 
------------------------------------------
------------------------------------------

RemoveSubsets:
---------------
Input file:                                  controlRun/source2/trackletsPurified/59602.tracklets.purified
Output file:                                 controlRun/source2/trackletsFinal/59602.tracklets.final
RemoveSubsets:                               false
Short-circuit if possible:                   true
Sort sets by size before set intersection:   false
Keep only longest tracklet(s) per detection: false
Reading infile, starting at Thu Feb 18 13:33:34 2016

Finished reading infile at Thu Feb 18 13:33:34 2016

Reading input took 0.0000000000 seconds.
Finished filtering, writing output starting at Thu Feb 18 13:33:34 2016

Completed after 0.0000000000 seconds.
Finished successfully finished at Thu Feb 18 13:33:34 2016

This process (46715) memory usage: 
------------------------------------------
------------------------------------------

RemoveSubsets:
---------------
Input file:                                  controlRun/source2/trackletsPurified/59603.tracklets.purified
Output file:                                 controlRun/source2/trackletsFinal/59603.tracklets.final
RemoveSubsets:                               false
Short-circuit if possible:                   true
Sort sets by size before set intersection:   false
Keep only longest tracklet(s) per detection: false
Reading infile, starting at Thu Feb 18 13:33:34 2016

Finished reading infile at Thu Feb 18 13:33:34 2016

Reading input took 0.0000000000 seconds.
Finished filtering, writing output starting at Thu Feb 18 13:33:34 2016

Completed after 0.0000000000 seconds.
Finished successfully finished at Thu Feb 18 13:33:34 2016

This process (46717) memory usage: 
------------------------------------------
------------------------------------------

RemoveSubsets:
---------------
Input file:                                  controlRun/source2/trackletsPurified/59604.tracklets.purified
Output file:                                 controlRun/source2/trackletsFinal/59604.tracklets.final
RemoveSubsets:                               false
Short-circuit if possible:                   true
Sort sets by size before set intersection:   false
Keep only longest tracklet(s) per detection: false
Reading infile, starting at Thu Feb 18 13:33:34 2016

Finished reading infile at Thu Feb 18 13:33:34 2016

Reading input took 0.0000000000 seconds.
Finished filtering, writing output starting at Thu Feb 18 13:33:34 2016

Completed after 0.0000000000 seconds.
Finished successfully finished at Thu Feb 18 13:33:34 2016

This process (46719) memory usage: 
------------------------------------------
------------------------------------------

RemoveSubsets:
---------------
Input file:                                  controlRun/source2/trackletsPurified/59605.tracklets.purified
Output file:                                 controlRun/source2/trackletsFinal/59605.tracklets.final
RemoveSubsets:                               false
Short-circuit if possible:                   true
Sort sets by size before set intersection:   false
Keep only longest tracklet(s) per detection: false
Reading infile, starting at Thu Feb 18 13:33:34 2016

Finished reading infile at Thu Feb 18 13:33:34 2016

Reading input took 0.0000000000 seconds.
Finished filtering, writing output starting at Thu Feb 18 13:33:34 2016

Completed after 0.0000000000 seconds.
Finished successfully finished at Thu Feb 18 13:33:34 2016

This process (46721) memory usage: 
------------------------------------------
------------------------------------------

RemoveSubsets:
---------------
Input file:                                  controlRun/source2/trackletsPurified/59606.tracklets.purified
Output file:                                 controlRun/source2/trackletsFinal/59606.tracklets.final
RemoveSubsets:                               false
Short-circuit if possible:                   true
Sort sets by size before set intersection:   false
Keep only longest tracklet(s) per detection: false
Reading infile, starting at Thu Feb 18 13:33:34 2016

Finished reading infile at Thu Feb 18 13:33:34 2016

Reading input took 0.0000000000 seconds.
Finished filtering, writing output starting at Thu Feb 18 13:33:34 2016

Completed after 0.0000000000 seconds.
Finished successfully finished at Thu Feb 18 13:33:34 2016

This process (46723) memory usage: 
------------------------------------------
------------------------------------------

RemoveSubsets:
---------------
Input file:                                  controlRun/source2/trackletsPurified/59607.tracklets.purified
Output file:                                 controlRun/source2/trackletsFinal/59607.tracklets.final
RemoveSubsets:                               false
Short-circuit if possible:                   true
Sort sets by size before set intersection:   false
Keep only longest tracklet(s) per detection: false
Reading infile, starting at Thu Feb 18 13:33:34 2016

Finished reading infile at Thu Feb 18 13:33:34 2016

Reading input took 0.0000000000 seconds.
Finished filtering, writing output starting at Thu Feb 18 13:33:34 2016

Completed after 0.0000000000 seconds.
Finished successfully finished at Thu Feb 18 13:33:34 2016

This process (46725) memory usage: 
------------------------------------------
------------------------------------------

RemoveSubsets:
---------------
Input file:                                  controlRun/source2/trackletsPurified/59608.tracklets.purified
Output file:                                 controlRun/source2/trackletsFinal/59608.tracklets.final
RemoveSubsets:                               false
Short-circuit if possible:                   true
Sort sets by size before set intersection:   false
Keep only longest tracklet(s) per detection: false
Reading infile, starting at Thu Feb 18 13:33:34 2016

Finished reading infile at Thu Feb 18 13:33:34 2016

Reading input took 0.0000000000 seconds.
Finished filtering, writing output starting at Thu Feb 18 13:33:34 2016

Completed after 0.0000000000 seconds.
Finished successfully finished at Thu Feb 18 13:33:34 2016

This process (46727) memory usage: 
------------------------------------------
------------------------------------------

RemoveSubsets:
---------------
Input file:                                  controlRun/source2/trackletsPurified/59609.tracklets.purified
Output file:                                 controlRun/source2/trackletsFinal/59609.tracklets.final
RemoveSubsets:                               false
Short-circuit if possible:                   true
Sort sets by size before set intersection:   false
Keep only longest tracklet(s) per detection: false
Reading infile, starting at Thu Feb 18 13:33:34 2016

Finished reading infile at Thu Feb 18 13:33:34 2016

Reading input took 0.0000000000 seconds.
Finished filtering, writing output starting at Thu Feb 18 13:33:34 2016

Completed after 0.0000000000 seconds.
Finished successfully finished at Thu Feb 18 13:33:34 2016

This process (46729) memory usage: 
------------------------------------------
------------------------------------------

