RemoveSubsets:
---------------
Input file:                                  controlRun/source2/trackletsPurified/59580.tracklets.purified
Output file:                                 controlRun/source2/trackletsFinal/59580.tracklets.final
RemoveSubsets:                               false
Short-circuit if possible:                   true
Sort sets by size before set intersection:   false
Keep only longest tracklet(s) per detection: false
Reading infile, starting at Fri Feb 19 10:40:51 2016

Finished reading infile at Fri Feb 19 10:40:51 2016

Reading input took 0.0000000000 seconds.
Finished filtering, writing output starting at Fri Feb 19 10:40:51 2016

Completed after 0.0000000000 seconds.
Finished successfully finished at Fri Feb 19 10:40:51 2016

This process (8457) memory usage: 
------------------------------------------
------------------------------------------

RemoveSubsets:
---------------
Input file:                                  controlRun/source2/trackletsPurified/59581.tracklets.purified
Output file:                                 controlRun/source2/trackletsFinal/59581.tracklets.final
RemoveSubsets:                               false
Short-circuit if possible:                   true
Sort sets by size before set intersection:   false
Keep only longest tracklet(s) per detection: false
Reading infile, starting at Fri Feb 19 10:40:52 2016

Finished reading infile at Fri Feb 19 10:40:52 2016

Reading input took 0.0000000000 seconds.
Finished filtering, writing output starting at Fri Feb 19 10:40:52 2016

Completed after 0.0000000000 seconds.
Finished successfully finished at Fri Feb 19 10:40:52 2016

This process (8459) memory usage: 
------------------------------------------
------------------------------------------

RemoveSubsets:
---------------
Input file:                                  controlRun/source2/trackletsPurified/59582.tracklets.purified
Output file:                                 controlRun/source2/trackletsFinal/59582.tracklets.final
RemoveSubsets:                               false
Short-circuit if possible:                   true
Sort sets by size before set intersection:   false
Keep only longest tracklet(s) per detection: false
Reading infile, starting at Fri Feb 19 10:40:52 2016

Finished reading infile at Fri Feb 19 10:40:52 2016

Reading input took 0.0000000000 seconds.
Finished filtering, writing output starting at Fri Feb 19 10:40:52 2016

Completed after 0.0000000000 seconds.
Finished successfully finished at Fri Feb 19 10:40:52 2016

This process (8461) memory usage: 
------------------------------------------
------------------------------------------

RemoveSubsets:
---------------
Input file:                                  controlRun/source2/trackletsPurified/59583.tracklets.purified
Output file:                                 controlRun/source2/trackletsFinal/59583.tracklets.final
RemoveSubsets:                               false
Short-circuit if possible:                   true
Sort sets by size before set intersection:   false
Keep only longest tracklet(s) per detection: false
Reading infile, starting at Fri Feb 19 10:40:52 2016

Finished reading infile at Fri Feb 19 10:40:52 2016

Reading input took 0.0000000000 seconds.
Finished filtering, writing output starting at Fri Feb 19 10:40:52 2016

Completed after 0.0000000000 seconds.
Finished successfully finished at Fri Feb 19 10:40:52 2016

This process (8463) memory usage: 
------------------------------------------
------------------------------------------

RemoveSubsets:
---------------
Input file:                                  controlRun/source2/trackletsPurified/59584.tracklets.purified
Output file:                                 controlRun/source2/trackletsFinal/59584.tracklets.final
RemoveSubsets:                               false
Short-circuit if possible:                   true
Sort sets by size before set intersection:   false
Keep only longest tracklet(s) per detection: false
Reading infile, starting at Fri Feb 19 10:40:52 2016

Finished reading infile at Fri Feb 19 10:40:52 2016

Reading input took 0.0000000000 seconds.
Finished filtering, writing output starting at Fri Feb 19 10:40:52 2016

Completed after 0.0000000000 seconds.
Finished successfully finished at Fri Feb 19 10:40:52 2016

This process (8465) memory usage: 
------------------------------------------
------------------------------------------

RemoveSubsets:
---------------
Input file:                                  controlRun/source2/trackletsPurified/59585.tracklets.purified
Output file:                                 controlRun/source2/trackletsFinal/59585.tracklets.final
RemoveSubsets:                               false
Short-circuit if possible:                   true
Sort sets by size before set intersection:   false
Keep only longest tracklet(s) per detection: false
Reading infile, starting at Fri Feb 19 10:40:52 2016

Finished reading infile at Fri Feb 19 10:40:52 2016

Reading input took 0.0000000000 seconds.
Finished filtering, writing output starting at Fri Feb 19 10:40:52 2016

Completed after 0.0000000000 seconds.
Finished successfully finished at Fri Feb 19 10:40:52 2016

This process (8467) memory usage: 
------------------------------------------
------------------------------------------

RemoveSubsets:
---------------
Input file:                                  controlRun/source2/trackletsPurified/59586.tracklets.purified
Output file:                                 controlRun/source2/trackletsFinal/59586.tracklets.final
RemoveSubsets:                               false
Short-circuit if possible:                   true
Sort sets by size before set intersection:   false
Keep only longest tracklet(s) per detection: false
Reading infile, starting at Fri Feb 19 10:40:52 2016

Finished reading infile at Fri Feb 19 10:40:52 2016

Reading input took 0.0000000000 seconds.
Finished filtering, writing output starting at Fri Feb 19 10:40:52 2016

Completed after 0.0000000000 seconds.
Finished successfully finished at Fri Feb 19 10:40:52 2016

This process (8469) memory usage: 
------------------------------------------
------------------------------------------

RemoveSubsets:
---------------
Input file:                                  controlRun/source2/trackletsPurified/59587.tracklets.purified
Output file:                                 controlRun/source2/trackletsFinal/59587.tracklets.final
RemoveSubsets:                               false
Short-circuit if possible:                   true
Sort sets by size before set intersection:   false
Keep only longest tracklet(s) per detection: false
Reading infile, starting at Fri Feb 19 10:40:52 2016

Finished reading infile at Fri Feb 19 10:40:52 2016

Reading input took 0.0000000000 seconds.
Finished filtering, writing output starting at Fri Feb 19 10:40:52 2016

Completed after 0.0000000000 seconds.
Finished successfully finished at Fri Feb 19 10:40:52 2016

This process (8471) memory usage: 
------------------------------------------
------------------------------------------

RemoveSubsets:
---------------
Input file:                                  controlRun/source2/trackletsPurified/59588.tracklets.purified
Output file:                                 controlRun/source2/trackletsFinal/59588.tracklets.final
RemoveSubsets:                               false
Short-circuit if possible:                   true
Sort sets by size before set intersection:   false
Keep only longest tracklet(s) per detection: false
Reading infile, starting at Fri Feb 19 10:40:52 2016

Finished reading infile at Fri Feb 19 10:40:52 2016

Reading input took 0.0000000000 seconds.
Finished filtering, writing output starting at Fri Feb 19 10:40:52 2016

Completed after 0.0000000000 seconds.
Finished successfully finished at Fri Feb 19 10:40:52 2016

This process (8473) memory usage: 
------------------------------------------
------------------------------------------

RemoveSubsets:
---------------
Input file:                                  controlRun/source2/trackletsPurified/59589.tracklets.purified
Output file:                                 controlRun/source2/trackletsFinal/59589.tracklets.final
RemoveSubsets:                               false
Short-circuit if possible:                   true
Sort sets by size before set intersection:   false
Keep only longest tracklet(s) per detection: false
Reading infile, starting at Fri Feb 19 10:40:52 2016

Finished reading infile at Fri Feb 19 10:40:52 2016

Reading input took 0.0000000000 seconds.
Finished filtering, writing output starting at Fri Feb 19 10:40:52 2016

Completed after 0.0000000000 seconds.
Finished successfully finished at Fri Feb 19 10:40:52 2016

This process (8475) memory usage: 
------------------------------------------
------------------------------------------

RemoveSubsets:
---------------
Input file:                                  controlRun/source2/trackletsPurified/59590.tracklets.purified
Output file:                                 controlRun/source2/trackletsFinal/59590.tracklets.final
RemoveSubsets:                               false
Short-circuit if possible:                   true
Sort sets by size before set intersection:   false
Keep only longest tracklet(s) per detection: false
Reading infile, starting at Fri Feb 19 10:40:52 2016

Finished reading infile at Fri Feb 19 10:40:52 2016

Reading input took 0.0000000000 seconds.
Finished filtering, writing output starting at Fri Feb 19 10:40:52 2016

Completed after 0.0000000000 seconds.
Finished successfully finished at Fri Feb 19 10:40:52 2016

This process (8477) memory usage: 
------------------------------------------
------------------------------------------

RemoveSubsets:
---------------
Input file:                                  controlRun/source2/trackletsPurified/59591.tracklets.purified
Output file:                                 controlRun/source2/trackletsFinal/59591.tracklets.final
RemoveSubsets:                               false
Short-circuit if possible:                   true
Sort sets by size before set intersection:   false
Keep only longest tracklet(s) per detection: false
Reading infile, starting at Fri Feb 19 10:40:52 2016

Finished reading infile at Fri Feb 19 10:40:52 2016

Reading input took 0.0000000000 seconds.
Finished filtering, writing output starting at Fri Feb 19 10:40:52 2016

Completed after 0.0000000000 seconds.
Finished successfully finished at Fri Feb 19 10:40:52 2016

This process (8479) memory usage: 
------------------------------------------
------------------------------------------

RemoveSubsets:
---------------
Input file:                                  controlRun/source2/trackletsPurified/59592.tracklets.purified
Output file:                                 controlRun/source2/trackletsFinal/59592.tracklets.final
RemoveSubsets:                               false
Short-circuit if possible:                   true
Sort sets by size before set intersection:   false
Keep only longest tracklet(s) per detection: false
Reading infile, starting at Fri Feb 19 10:40:52 2016

Finished reading infile at Fri Feb 19 10:40:52 2016

Reading input took 0.0000000000 seconds.
Finished filtering, writing output starting at Fri Feb 19 10:40:52 2016

Completed after 0.0000000000 seconds.
Finished successfully finished at Fri Feb 19 10:40:52 2016

This process (8481) memory usage: 
------------------------------------------
------------------------------------------

RemoveSubsets:
---------------
Input file:                                  controlRun/source2/trackletsPurified/59593.tracklets.purified
Output file:                                 controlRun/source2/trackletsFinal/59593.tracklets.final
RemoveSubsets:                               false
Short-circuit if possible:                   true
Sort sets by size before set intersection:   false
Keep only longest tracklet(s) per detection: false
Reading infile, starting at Fri Feb 19 10:40:52 2016

Finished reading infile at Fri Feb 19 10:40:52 2016

Reading input took 0.0000000000 seconds.
Finished filtering, writing output starting at Fri Feb 19 10:40:52 2016

Completed after 0.0000000000 seconds.
Finished successfully finished at Fri Feb 19 10:40:52 2016

This process (8483) memory usage: 
------------------------------------------
------------------------------------------

RemoveSubsets:
---------------
Input file:                                  controlRun/source2/trackletsPurified/59594.tracklets.purified
Output file:                                 controlRun/source2/trackletsFinal/59594.tracklets.final
RemoveSubsets:                               false
Short-circuit if possible:                   true
Sort sets by size before set intersection:   false
Keep only longest tracklet(s) per detection: false
Reading infile, starting at Fri Feb 19 10:40:52 2016

Finished reading infile at Fri Feb 19 10:40:52 2016

Reading input took 0.0000000000 seconds.
Finished filtering, writing output starting at Fri Feb 19 10:40:52 2016

Completed after 0.0000000000 seconds.
Finished successfully finished at Fri Feb 19 10:40:52 2016

This process (8485) memory usage: 
------------------------------------------
------------------------------------------

RemoveSubsets:
---------------
Input file:                                  controlRun/source2/trackletsPurified/59595.tracklets.purified
Output file:                                 controlRun/source2/trackletsFinal/59595.tracklets.final
RemoveSubsets:                               false
Short-circuit if possible:                   true
Sort sets by size before set intersection:   false
Keep only longest tracklet(s) per detection: false
Reading infile, starting at Fri Feb 19 10:40:52 2016

Finished reading infile at Fri Feb 19 10:40:52 2016

Reading input took 0.0000000000 seconds.
Finished filtering, writing output starting at Fri Feb 19 10:40:52 2016

Completed after 0.0000000000 seconds.
Finished successfully finished at Fri Feb 19 10:40:52 2016

This process (8487) memory usage: 
------------------------------------------
------------------------------------------

RemoveSubsets:
---------------
Input file:                                  controlRun/source2/trackletsPurified/59596.tracklets.purified
Output file:                                 controlRun/source2/trackletsFinal/59596.tracklets.final
RemoveSubsets:                               false
Short-circuit if possible:                   true
Sort sets by size before set intersection:   false
Keep only longest tracklet(s) per detection: false
Reading infile, starting at Fri Feb 19 10:40:52 2016

Finished reading infile at Fri Feb 19 10:40:52 2016

Reading input took 0.0000000000 seconds.
Finished filtering, writing output starting at Fri Feb 19 10:40:52 2016

Completed after 0.0000000000 seconds.
Finished successfully finished at Fri Feb 19 10:40:52 2016

This process (8489) memory usage: 
------------------------------------------
------------------------------------------

RemoveSubsets:
---------------
Input file:                                  controlRun/source2/trackletsPurified/59597.tracklets.purified
Output file:                                 controlRun/source2/trackletsFinal/59597.tracklets.final
RemoveSubsets:                               false
Short-circuit if possible:                   true
Sort sets by size before set intersection:   false
Keep only longest tracklet(s) per detection: false
Reading infile, starting at Fri Feb 19 10:40:52 2016

Finished reading infile at Fri Feb 19 10:40:52 2016

Reading input took 0.0000000000 seconds.
Finished filtering, writing output starting at Fri Feb 19 10:40:52 2016

Completed after 0.0000000000 seconds.
Finished successfully finished at Fri Feb 19 10:40:52 2016

This process (8491) memory usage: 
------------------------------------------
------------------------------------------

RemoveSubsets:
---------------
Input file:                                  controlRun/source2/trackletsPurified/59598.tracklets.purified
Output file:                                 controlRun/source2/trackletsFinal/59598.tracklets.final
RemoveSubsets:                               false
Short-circuit if possible:                   true
Sort sets by size before set intersection:   false
Keep only longest tracklet(s) per detection: false
Reading infile, starting at Fri Feb 19 10:40:52 2016

Finished reading infile at Fri Feb 19 10:40:52 2016

Reading input took 0.0000000000 seconds.
Finished filtering, writing output starting at Fri Feb 19 10:40:52 2016

Completed after 0.0000000000 seconds.
Finished successfully finished at Fri Feb 19 10:40:52 2016

This process (8493) memory usage: 
------------------------------------------
------------------------------------------

RemoveSubsets:
---------------
Input file:                                  controlRun/source2/trackletsPurified/59599.tracklets.purified
Output file:                                 controlRun/source2/trackletsFinal/59599.tracklets.final
RemoveSubsets:                               false
Short-circuit if possible:                   true
Sort sets by size before set intersection:   false
Keep only longest tracklet(s) per detection: false
Reading infile, starting at Fri Feb 19 10:40:52 2016

Finished reading infile at Fri Feb 19 10:40:52 2016

Reading input took 0.0000000000 seconds.
Finished filtering, writing output starting at Fri Feb 19 10:40:52 2016

Completed after 0.0000000000 seconds.
Finished successfully finished at Fri Feb 19 10:40:52 2016

This process (8495) memory usage: 
------------------------------------------
------------------------------------------

RemoveSubsets:
---------------
Input file:                                  controlRun/source2/trackletsPurified/59600.tracklets.purified
Output file:                                 controlRun/source2/trackletsFinal/59600.tracklets.final
RemoveSubsets:                               false
Short-circuit if possible:                   true
Sort sets by size before set intersection:   false
Keep only longest tracklet(s) per detection: false
Reading infile, starting at Fri Feb 19 10:40:52 2016

Finished reading infile at Fri Feb 19 10:40:52 2016

Reading input took 0.0000000000 seconds.
Finished filtering, writing output starting at Fri Feb 19 10:40:52 2016

Completed after 0.0000000000 seconds.
Finished successfully finished at Fri Feb 19 10:40:52 2016

This process (8497) memory usage: 
------------------------------------------
------------------------------------------

RemoveSubsets:
---------------
Input file:                                  controlRun/source2/trackletsPurified/59601.tracklets.purified
Output file:                                 controlRun/source2/trackletsFinal/59601.tracklets.final
RemoveSubsets:                               false
Short-circuit if possible:                   true
Sort sets by size before set intersection:   false
Keep only longest tracklet(s) per detection: false
Reading infile, starting at Fri Feb 19 10:40:52 2016

Finished reading infile at Fri Feb 19 10:40:52 2016

Reading input took 0.0000000000 seconds.
Finished filtering, writing output starting at Fri Feb 19 10:40:52 2016

Completed after 0.0000000000 seconds.
Finished successfully finished at Fri Feb 19 10:40:52 2016

This process (8499) memory usage: 
------------------------------------------
------------------------------------------

RemoveSubsets:
---------------
Input file:                                  controlRun/source2/trackletsPurified/59602.tracklets.purified
Output file:                                 controlRun/source2/trackletsFinal/59602.tracklets.final
RemoveSubsets:                               false
Short-circuit if possible:                   true
Sort sets by size before set intersection:   false
Keep only longest tracklet(s) per detection: false
Reading infile, starting at Fri Feb 19 10:40:52 2016

Finished reading infile at Fri Feb 19 10:40:52 2016

Reading input took 0.0000000000 seconds.
Finished filtering, writing output starting at Fri Feb 19 10:40:52 2016

Completed after 0.0000000000 seconds.
Finished successfully finished at Fri Feb 19 10:40:52 2016

This process (8501) memory usage: 
------------------------------------------
------------------------------------------

RemoveSubsets:
---------------
Input file:                                  controlRun/source2/trackletsPurified/59603.tracklets.purified
Output file:                                 controlRun/source2/trackletsFinal/59603.tracklets.final
RemoveSubsets:                               false
Short-circuit if possible:                   true
Sort sets by size before set intersection:   false
Keep only longest tracklet(s) per detection: false
Reading infile, starting at Fri Feb 19 10:40:52 2016

Finished reading infile at Fri Feb 19 10:40:52 2016

Reading input took 0.0000000000 seconds.
Finished filtering, writing output starting at Fri Feb 19 10:40:52 2016

Completed after 0.0000000000 seconds.
Finished successfully finished at Fri Feb 19 10:40:52 2016

This process (8503) memory usage: 
------------------------------------------
------------------------------------------

RemoveSubsets:
---------------
Input file:                                  controlRun/source2/trackletsPurified/59604.tracklets.purified
Output file:                                 controlRun/source2/trackletsFinal/59604.tracklets.final
RemoveSubsets:                               false
Short-circuit if possible:                   true
Sort sets by size before set intersection:   false
Keep only longest tracklet(s) per detection: false
Reading infile, starting at Fri Feb 19 10:40:52 2016

Finished reading infile at Fri Feb 19 10:40:52 2016

Reading input took 0.0000000000 seconds.
Finished filtering, writing output starting at Fri Feb 19 10:40:52 2016

Completed after 0.0000000000 seconds.
Finished successfully finished at Fri Feb 19 10:40:52 2016

This process (8505) memory usage: 
------------------------------------------
------------------------------------------

RemoveSubsets:
---------------
Input file:                                  controlRun/source2/trackletsPurified/59605.tracklets.purified
Output file:                                 controlRun/source2/trackletsFinal/59605.tracklets.final
RemoveSubsets:                               false
Short-circuit if possible:                   true
Sort sets by size before set intersection:   false
Keep only longest tracklet(s) per detection: false
Reading infile, starting at Fri Feb 19 10:40:52 2016

Finished reading infile at Fri Feb 19 10:40:52 2016

Reading input took 0.0000000000 seconds.
Finished filtering, writing output starting at Fri Feb 19 10:40:52 2016

Completed after 0.0000000000 seconds.
Finished successfully finished at Fri Feb 19 10:40:52 2016

This process (8507) memory usage: 
------------------------------------------
------------------------------------------

RemoveSubsets:
---------------
Input file:                                  controlRun/source2/trackletsPurified/59606.tracklets.purified
Output file:                                 controlRun/source2/trackletsFinal/59606.tracklets.final
RemoveSubsets:                               false
Short-circuit if possible:                   true
Sort sets by size before set intersection:   false
Keep only longest tracklet(s) per detection: false
Reading infile, starting at Fri Feb 19 10:40:52 2016

Finished reading infile at Fri Feb 19 10:40:52 2016

Reading input took 0.0000000000 seconds.
Finished filtering, writing output starting at Fri Feb 19 10:40:52 2016

Completed after 0.0000000000 seconds.
Finished successfully finished at Fri Feb 19 10:40:52 2016

This process (8509) memory usage: 
------------------------------------------
------------------------------------------

RemoveSubsets:
---------------
Input file:                                  controlRun/source2/trackletsPurified/59607.tracklets.purified
Output file:                                 controlRun/source2/trackletsFinal/59607.tracklets.final
RemoveSubsets:                               false
Short-circuit if possible:                   true
Sort sets by size before set intersection:   false
Keep only longest tracklet(s) per detection: false
Reading infile, starting at Fri Feb 19 10:40:52 2016

Finished reading infile at Fri Feb 19 10:40:52 2016

Reading input took 0.0000000000 seconds.
Finished filtering, writing output starting at Fri Feb 19 10:40:52 2016

Completed after 0.0000000000 seconds.
Finished successfully finished at Fri Feb 19 10:40:52 2016

This process (8511) memory usage: 
------------------------------------------
------------------------------------------

RemoveSubsets:
---------------
Input file:                                  controlRun/source2/trackletsPurified/59608.tracklets.purified
Output file:                                 controlRun/source2/trackletsFinal/59608.tracklets.final
RemoveSubsets:                               false
Short-circuit if possible:                   true
Sort sets by size before set intersection:   false
Keep only longest tracklet(s) per detection: false
Reading infile, starting at Fri Feb 19 10:40:52 2016

Finished reading infile at Fri Feb 19 10:40:52 2016

Reading input took 0.0000000000 seconds.
Finished filtering, writing output starting at Fri Feb 19 10:40:52 2016

Completed after 0.0000000000 seconds.
Finished successfully finished at Fri Feb 19 10:40:52 2016

This process (8513) memory usage: 
------------------------------------------
------------------------------------------

RemoveSubsets:
---------------
Input file:                                  controlRun/source2/trackletsPurified/59609.tracklets.purified
Output file:                                 controlRun/source2/trackletsFinal/59609.tracklets.final
RemoveSubsets:                               false
Short-circuit if possible:                   true
Sort sets by size before set intersection:   false
Keep only longest tracklet(s) per detection: false
Reading infile, starting at Fri Feb 19 10:40:52 2016

Finished reading infile at Fri Feb 19 10:40:52 2016

Reading input took 0.0000000000 seconds.
Finished filtering, writing output starting at Fri Feb 19 10:40:52 2016

Completed after 0.0000000000 seconds.
Finished successfully finished at Fri Feb 19 10:40:52 2016

This process (8515) memory usage: 
------------------------------------------
------------------------------------------

