RemoveSubsets:
---------------
Input file:                                  testRun/trackletsPurified/54466.tracklet.purified
Output file:                                 testRun/trackletsFinal/54466.tracklet.final
RemoveSubsets:                               true
Short-circuit if possible:                   true
Sort sets by size before set intersection:   false
Keep only longest tracklet(s) per detection: false
Reading infile, starting at Wed Dec  2 12:47:04 2015

Finished reading infile at Wed Dec  2 12:47:04 2015

Reading input took 0.0000000000 seconds.
Building detection-to-track map, starting at Wed Dec  2 12:47:04 2015

Finished detection-to-track map, filtering tracks starting at Wed Dec  2 12:47:04 2015

Finished filtering, writing output starting at Wed Dec  2 12:47:04 2015

Completed after 0.0000000000 seconds.
Finished successfully finished at Wed Dec  2 12:47:04 2015

This process (7386) memory usage: 
------------------------------------------
------------------------------------------

RemoveSubsets:
---------------
Input file:                                  testRun/trackletsPurified/54467.tracklet.purified
Output file:                                 testRun/trackletsFinal/54467.tracklet.final
RemoveSubsets:                               true
Short-circuit if possible:                   true
Sort sets by size before set intersection:   false
Keep only longest tracklet(s) per detection: false
Reading infile, starting at Wed Dec  2 12:47:04 2015

Finished reading infile at Wed Dec  2 12:47:04 2015

Reading input took 0.0000000000 seconds.
Building detection-to-track map, starting at Wed Dec  2 12:47:04 2015

Finished detection-to-track map, filtering tracks starting at Wed Dec  2 12:47:04 2015

Finished filtering, writing output starting at Wed Dec  2 12:47:04 2015

Completed after 0.0000000000 seconds.
Finished successfully finished at Wed Dec  2 12:47:04 2015

This process (7388) memory usage: 
------------------------------------------
------------------------------------------

RemoveSubsets:
---------------
Input file:                                  testRun/trackletsPurified/54468.tracklet.purified
Output file:                                 testRun/trackletsFinal/54468.tracklet.final
RemoveSubsets:                               true
Short-circuit if possible:                   true
Sort sets by size before set intersection:   false
Keep only longest tracklet(s) per detection: false
Reading infile, starting at Wed Dec  2 12:47:04 2015

Finished reading infile at Wed Dec  2 12:47:04 2015

Reading input took 0.0000000000 seconds.
Building detection-to-track map, starting at Wed Dec  2 12:47:04 2015

Finished detection-to-track map, filtering tracks starting at Wed Dec  2 12:47:04 2015

Finished filtering, writing output starting at Wed Dec  2 12:47:04 2015

Completed after 0.0000000000 seconds.
Finished successfully finished at Wed Dec  2 12:47:04 2015

This process (7390) memory usage: 
------------------------------------------
------------------------------------------

