RemoveSubsets:
---------------
Input file:                                  controlRun/source1/trackletsPurified/59580.tracklets.purified
Output file:                                 controlRun/source1/trackletsFinal/59580.tracklets.final
RemoveSubsets:                               false
Short-circuit if possible:                   true
Sort sets by size before set intersection:   false
Keep only longest tracklet(s) per detection: false
Reading infile, starting at Thu Feb 18 13:33:25 2016

Finished reading infile at Thu Feb 18 13:33:25 2016

Reading input took 0.0000000000 seconds.
Finished filtering, writing output starting at Thu Feb 18 13:33:25 2016

Completed after 0.0000000000 seconds.
Finished successfully finished at Thu Feb 18 13:33:25 2016

This process (46309) memory usage: 
------------------------------------------
------------------------------------------

RemoveSubsets:
---------------
Input file:                                  controlRun/source1/trackletsPurified/59581.tracklets.purified
Output file:                                 controlRun/source1/trackletsFinal/59581.tracklets.final
RemoveSubsets:                               false
Short-circuit if possible:                   true
Sort sets by size before set intersection:   false
Keep only longest tracklet(s) per detection: false
Reading infile, starting at Thu Feb 18 13:33:25 2016

Finished reading infile at Thu Feb 18 13:33:25 2016

Reading input took 0.0000000000 seconds.
Finished filtering, writing output starting at Thu Feb 18 13:33:25 2016

Completed after 0.0000000000 seconds.
Finished successfully finished at Thu Feb 18 13:33:25 2016

This process (46311) memory usage: 
------------------------------------------
------------------------------------------

RemoveSubsets:
---------------
Input file:                                  controlRun/source1/trackletsPurified/59582.tracklets.purified
Output file:                                 controlRun/source1/trackletsFinal/59582.tracklets.final
RemoveSubsets:                               false
Short-circuit if possible:                   true
Sort sets by size before set intersection:   false
Keep only longest tracklet(s) per detection: false
Reading infile, starting at Thu Feb 18 13:33:25 2016

Finished reading infile at Thu Feb 18 13:33:25 2016

Reading input took 0.0000000000 seconds.
Finished filtering, writing output starting at Thu Feb 18 13:33:25 2016

Completed after 0.0000000000 seconds.
Finished successfully finished at Thu Feb 18 13:33:25 2016

This process (46313) memory usage: 
------------------------------------------
------------------------------------------

RemoveSubsets:
---------------
Input file:                                  controlRun/source1/trackletsPurified/59583.tracklets.purified
Output file:                                 controlRun/source1/trackletsFinal/59583.tracklets.final
RemoveSubsets:                               false
Short-circuit if possible:                   true
Sort sets by size before set intersection:   false
Keep only longest tracklet(s) per detection: false
Reading infile, starting at Thu Feb 18 13:33:25 2016

Finished reading infile at Thu Feb 18 13:33:25 2016

Reading input took 0.0000000000 seconds.
Finished filtering, writing output starting at Thu Feb 18 13:33:25 2016

Completed after 0.0000000000 seconds.
Finished successfully finished at Thu Feb 18 13:33:25 2016

This process (46315) memory usage: 
------------------------------------------
------------------------------------------

RemoveSubsets:
---------------
Input file:                                  controlRun/source1/trackletsPurified/59584.tracklets.purified
Output file:                                 controlRun/source1/trackletsFinal/59584.tracklets.final
RemoveSubsets:                               false
Short-circuit if possible:                   true
Sort sets by size before set intersection:   false
Keep only longest tracklet(s) per detection: false
Reading infile, starting at Thu Feb 18 13:33:25 2016

Finished reading infile at Thu Feb 18 13:33:25 2016

Reading input took 0.0000000000 seconds.
Finished filtering, writing output starting at Thu Feb 18 13:33:25 2016

Completed after 0.0000000000 seconds.
Finished successfully finished at Thu Feb 18 13:33:25 2016

This process (46317) memory usage: 
------------------------------------------
------------------------------------------

RemoveSubsets:
---------------
Input file:                                  controlRun/source1/trackletsPurified/59585.tracklets.purified
Output file:                                 controlRun/source1/trackletsFinal/59585.tracklets.final
RemoveSubsets:                               false
Short-circuit if possible:                   true
Sort sets by size before set intersection:   false
Keep only longest tracklet(s) per detection: false
Reading infile, starting at Thu Feb 18 13:33:25 2016

Finished reading infile at Thu Feb 18 13:33:25 2016

Reading input took 0.0000000000 seconds.
Finished filtering, writing output starting at Thu Feb 18 13:33:25 2016

Completed after 0.0000000000 seconds.
Finished successfully finished at Thu Feb 18 13:33:25 2016

This process (46319) memory usage: 
------------------------------------------
------------------------------------------

RemoveSubsets:
---------------
Input file:                                  controlRun/source1/trackletsPurified/59586.tracklets.purified
Output file:                                 controlRun/source1/trackletsFinal/59586.tracklets.final
RemoveSubsets:                               false
Short-circuit if possible:                   true
Sort sets by size before set intersection:   false
Keep only longest tracklet(s) per detection: false
Reading infile, starting at Thu Feb 18 13:33:25 2016

Finished reading infile at Thu Feb 18 13:33:25 2016

Reading input took 0.0000000000 seconds.
Finished filtering, writing output starting at Thu Feb 18 13:33:25 2016

Completed after 0.0000000000 seconds.
Finished successfully finished at Thu Feb 18 13:33:25 2016

This process (46321) memory usage: 
------------------------------------------
------------------------------------------

RemoveSubsets:
---------------
Input file:                                  controlRun/source1/trackletsPurified/59587.tracklets.purified
Output file:                                 controlRun/source1/trackletsFinal/59587.tracklets.final
RemoveSubsets:                               false
Short-circuit if possible:                   true
Sort sets by size before set intersection:   false
Keep only longest tracklet(s) per detection: false
Reading infile, starting at Thu Feb 18 13:33:25 2016

Finished reading infile at Thu Feb 18 13:33:25 2016

Reading input took 0.0000000000 seconds.
Finished filtering, writing output starting at Thu Feb 18 13:33:25 2016

Completed after 0.0000000000 seconds.
Finished successfully finished at Thu Feb 18 13:33:25 2016

This process (46323) memory usage: 
------------------------------------------
------------------------------------------

RemoveSubsets:
---------------
Input file:                                  controlRun/source1/trackletsPurified/59588.tracklets.purified
Output file:                                 controlRun/source1/trackletsFinal/59588.tracklets.final
RemoveSubsets:                               false
Short-circuit if possible:                   true
Sort sets by size before set intersection:   false
Keep only longest tracklet(s) per detection: false
Reading infile, starting at Thu Feb 18 13:33:25 2016

Finished reading infile at Thu Feb 18 13:33:25 2016

Reading input took 0.0000000000 seconds.
Finished filtering, writing output starting at Thu Feb 18 13:33:25 2016

Completed after 0.0000000000 seconds.
Finished successfully finished at Thu Feb 18 13:33:25 2016

This process (46325) memory usage: 
------------------------------------------
------------------------------------------

RemoveSubsets:
---------------
Input file:                                  controlRun/source1/trackletsPurified/59589.tracklets.purified
Output file:                                 controlRun/source1/trackletsFinal/59589.tracklets.final
RemoveSubsets:                               false
Short-circuit if possible:                   true
Sort sets by size before set intersection:   false
Keep only longest tracklet(s) per detection: false
Reading infile, starting at Thu Feb 18 13:33:25 2016

Finished reading infile at Thu Feb 18 13:33:25 2016

Reading input took 0.0000000000 seconds.
Finished filtering, writing output starting at Thu Feb 18 13:33:25 2016

Completed after 0.0000000000 seconds.
Finished successfully finished at Thu Feb 18 13:33:25 2016

This process (46327) memory usage: 
------------------------------------------
------------------------------------------

RemoveSubsets:
---------------
Input file:                                  controlRun/source1/trackletsPurified/59590.tracklets.purified
Output file:                                 controlRun/source1/trackletsFinal/59590.tracklets.final
RemoveSubsets:                               false
Short-circuit if possible:                   true
Sort sets by size before set intersection:   false
Keep only longest tracklet(s) per detection: false
Reading infile, starting at Thu Feb 18 13:33:25 2016

Finished reading infile at Thu Feb 18 13:33:25 2016

Reading input took 0.0000000000 seconds.
Finished filtering, writing output starting at Thu Feb 18 13:33:25 2016

Completed after 0.0000000000 seconds.
Finished successfully finished at Thu Feb 18 13:33:25 2016

This process (46329) memory usage: 
------------------------------------------
------------------------------------------

RemoveSubsets:
---------------
Input file:                                  controlRun/source1/trackletsPurified/59591.tracklets.purified
Output file:                                 controlRun/source1/trackletsFinal/59591.tracklets.final
RemoveSubsets:                               false
Short-circuit if possible:                   true
Sort sets by size before set intersection:   false
Keep only longest tracklet(s) per detection: false
Reading infile, starting at Thu Feb 18 13:33:25 2016

Finished reading infile at Thu Feb 18 13:33:25 2016

Reading input took 0.0000000000 seconds.
Finished filtering, writing output starting at Thu Feb 18 13:33:25 2016

Completed after 0.0000000000 seconds.
Finished successfully finished at Thu Feb 18 13:33:25 2016

This process (46331) memory usage: 
------------------------------------------
------------------------------------------

RemoveSubsets:
---------------
Input file:                                  controlRun/source1/trackletsPurified/59592.tracklets.purified
Output file:                                 controlRun/source1/trackletsFinal/59592.tracklets.final
RemoveSubsets:                               false
Short-circuit if possible:                   true
Sort sets by size before set intersection:   false
Keep only longest tracklet(s) per detection: false
Reading infile, starting at Thu Feb 18 13:33:25 2016

Finished reading infile at Thu Feb 18 13:33:25 2016

Reading input took 0.0000000000 seconds.
Finished filtering, writing output starting at Thu Feb 18 13:33:25 2016

Completed after 0.0000000000 seconds.
Finished successfully finished at Thu Feb 18 13:33:25 2016

This process (46333) memory usage: 
------------------------------------------
------------------------------------------

RemoveSubsets:
---------------
Input file:                                  controlRun/source1/trackletsPurified/59593.tracklets.purified
Output file:                                 controlRun/source1/trackletsFinal/59593.tracklets.final
RemoveSubsets:                               false
Short-circuit if possible:                   true
Sort sets by size before set intersection:   false
Keep only longest tracklet(s) per detection: false
Reading infile, starting at Thu Feb 18 13:33:25 2016

Finished reading infile at Thu Feb 18 13:33:25 2016

Reading input took 0.0000000000 seconds.
Finished filtering, writing output starting at Thu Feb 18 13:33:25 2016

Completed after 0.0000000000 seconds.
Finished successfully finished at Thu Feb 18 13:33:25 2016

This process (46335) memory usage: 
------------------------------------------
------------------------------------------

RemoveSubsets:
---------------
Input file:                                  controlRun/source1/trackletsPurified/59594.tracklets.purified
Output file:                                 controlRun/source1/trackletsFinal/59594.tracklets.final
RemoveSubsets:                               false
Short-circuit if possible:                   true
Sort sets by size before set intersection:   false
Keep only longest tracklet(s) per detection: false
Reading infile, starting at Thu Feb 18 13:33:25 2016

Finished reading infile at Thu Feb 18 13:33:25 2016

Reading input took 0.0000000000 seconds.
Finished filtering, writing output starting at Thu Feb 18 13:33:25 2016

Completed after 0.0000000000 seconds.
Finished successfully finished at Thu Feb 18 13:33:25 2016

This process (46337) memory usage: 
------------------------------------------
------------------------------------------

RemoveSubsets:
---------------
Input file:                                  controlRun/source1/trackletsPurified/59595.tracklets.purified
Output file:                                 controlRun/source1/trackletsFinal/59595.tracklets.final
RemoveSubsets:                               false
Short-circuit if possible:                   true
Sort sets by size before set intersection:   false
Keep only longest tracklet(s) per detection: false
Reading infile, starting at Thu Feb 18 13:33:25 2016

Finished reading infile at Thu Feb 18 13:33:25 2016

Reading input took 0.0000000000 seconds.
Finished filtering, writing output starting at Thu Feb 18 13:33:25 2016

Completed after 0.0000000000 seconds.
Finished successfully finished at Thu Feb 18 13:33:25 2016

This process (46339) memory usage: 
------------------------------------------
------------------------------------------

RemoveSubsets:
---------------
Input file:                                  controlRun/source1/trackletsPurified/59596.tracklets.purified
Output file:                                 controlRun/source1/trackletsFinal/59596.tracklets.final
RemoveSubsets:                               false
Short-circuit if possible:                   true
Sort sets by size before set intersection:   false
Keep only longest tracklet(s) per detection: false
Reading infile, starting at Thu Feb 18 13:33:25 2016

Finished reading infile at Thu Feb 18 13:33:25 2016

Reading input took 0.0000000000 seconds.
Finished filtering, writing output starting at Thu Feb 18 13:33:25 2016

Completed after 0.0000000000 seconds.
Finished successfully finished at Thu Feb 18 13:33:25 2016

This process (46341) memory usage: 
------------------------------------------
------------------------------------------

RemoveSubsets:
---------------
Input file:                                  controlRun/source1/trackletsPurified/59597.tracklets.purified
Output file:                                 controlRun/source1/trackletsFinal/59597.tracklets.final
RemoveSubsets:                               false
Short-circuit if possible:                   true
Sort sets by size before set intersection:   false
Keep only longest tracklet(s) per detection: false
Reading infile, starting at Thu Feb 18 13:33:25 2016

Finished reading infile at Thu Feb 18 13:33:25 2016

Reading input took 0.0000000000 seconds.
Finished filtering, writing output starting at Thu Feb 18 13:33:25 2016

Completed after 0.0000000000 seconds.
Finished successfully finished at Thu Feb 18 13:33:25 2016

This process (46343) memory usage: 
------------------------------------------
------------------------------------------

RemoveSubsets:
---------------
Input file:                                  controlRun/source1/trackletsPurified/59598.tracklets.purified
Output file:                                 controlRun/source1/trackletsFinal/59598.tracklets.final
RemoveSubsets:                               false
Short-circuit if possible:                   true
Sort sets by size before set intersection:   false
Keep only longest tracklet(s) per detection: false
Reading infile, starting at Thu Feb 18 13:33:25 2016

Finished reading infile at Thu Feb 18 13:33:25 2016

Reading input took 0.0000000000 seconds.
Finished filtering, writing output starting at Thu Feb 18 13:33:25 2016

Completed after 0.0000000000 seconds.
Finished successfully finished at Thu Feb 18 13:33:25 2016

This process (46345) memory usage: 
------------------------------------------
------------------------------------------

RemoveSubsets:
---------------
Input file:                                  controlRun/source1/trackletsPurified/59599.tracklets.purified
Output file:                                 controlRun/source1/trackletsFinal/59599.tracklets.final
RemoveSubsets:                               false
Short-circuit if possible:                   true
Sort sets by size before set intersection:   false
Keep only longest tracklet(s) per detection: false
Reading infile, starting at Thu Feb 18 13:33:25 2016

Finished reading infile at Thu Feb 18 13:33:25 2016

Reading input took 0.0000000000 seconds.
Finished filtering, writing output starting at Thu Feb 18 13:33:25 2016

Completed after 0.0000000000 seconds.
Finished successfully finished at Thu Feb 18 13:33:25 2016

This process (46347) memory usage: 
------------------------------------------
------------------------------------------

RemoveSubsets:
---------------
Input file:                                  controlRun/source1/trackletsPurified/59600.tracklets.purified
Output file:                                 controlRun/source1/trackletsFinal/59600.tracklets.final
RemoveSubsets:                               false
Short-circuit if possible:                   true
Sort sets by size before set intersection:   false
Keep only longest tracklet(s) per detection: false
Reading infile, starting at Thu Feb 18 13:33:25 2016

Finished reading infile at Thu Feb 18 13:33:25 2016

Reading input took 0.0000000000 seconds.
Finished filtering, writing output starting at Thu Feb 18 13:33:25 2016

Completed after 0.0000000000 seconds.
Finished successfully finished at Thu Feb 18 13:33:25 2016

This process (46349) memory usage: 
------------------------------------------
------------------------------------------

RemoveSubsets:
---------------
Input file:                                  controlRun/source1/trackletsPurified/59601.tracklets.purified
Output file:                                 controlRun/source1/trackletsFinal/59601.tracklets.final
RemoveSubsets:                               false
Short-circuit if possible:                   true
Sort sets by size before set intersection:   false
Keep only longest tracklet(s) per detection: false
Reading infile, starting at Thu Feb 18 13:33:25 2016

Finished reading infile at Thu Feb 18 13:33:25 2016

Reading input took 0.0000000000 seconds.
Finished filtering, writing output starting at Thu Feb 18 13:33:25 2016

Completed after 0.0000000000 seconds.
Finished successfully finished at Thu Feb 18 13:33:25 2016

This process (46351) memory usage: 
------------------------------------------
------------------------------------------

RemoveSubsets:
---------------
Input file:                                  controlRun/source1/trackletsPurified/59602.tracklets.purified
Output file:                                 controlRun/source1/trackletsFinal/59602.tracklets.final
RemoveSubsets:                               false
Short-circuit if possible:                   true
Sort sets by size before set intersection:   false
Keep only longest tracklet(s) per detection: false
Reading infile, starting at Thu Feb 18 13:33:25 2016

Finished reading infile at Thu Feb 18 13:33:25 2016

Reading input took 0.0000000000 seconds.
Finished filtering, writing output starting at Thu Feb 18 13:33:25 2016

Completed after 0.0000000000 seconds.
Finished successfully finished at Thu Feb 18 13:33:25 2016

This process (46353) memory usage: 
------------------------------------------
------------------------------------------

RemoveSubsets:
---------------
Input file:                                  controlRun/source1/trackletsPurified/59603.tracklets.purified
Output file:                                 controlRun/source1/trackletsFinal/59603.tracklets.final
RemoveSubsets:                               false
Short-circuit if possible:                   true
Sort sets by size before set intersection:   false
Keep only longest tracklet(s) per detection: false
Reading infile, starting at Thu Feb 18 13:33:25 2016

Finished reading infile at Thu Feb 18 13:33:25 2016

Reading input took 0.0000000000 seconds.
Finished filtering, writing output starting at Thu Feb 18 13:33:25 2016

Completed after 0.0000000000 seconds.
Finished successfully finished at Thu Feb 18 13:33:25 2016

This process (46355) memory usage: 
------------------------------------------
------------------------------------------

RemoveSubsets:
---------------
Input file:                                  controlRun/source1/trackletsPurified/59604.tracklets.purified
Output file:                                 controlRun/source1/trackletsFinal/59604.tracklets.final
RemoveSubsets:                               false
Short-circuit if possible:                   true
Sort sets by size before set intersection:   false
Keep only longest tracklet(s) per detection: false
Reading infile, starting at Thu Feb 18 13:33:25 2016

Finished reading infile at Thu Feb 18 13:33:25 2016

Reading input took 0.0000000000 seconds.
Finished filtering, writing output starting at Thu Feb 18 13:33:25 2016

Completed after 0.0000000000 seconds.
Finished successfully finished at Thu Feb 18 13:33:25 2016

This process (46357) memory usage: 
------------------------------------------
------------------------------------------

RemoveSubsets:
---------------
Input file:                                  controlRun/source1/trackletsPurified/59605.tracklets.purified
Output file:                                 controlRun/source1/trackletsFinal/59605.tracklets.final
RemoveSubsets:                               false
Short-circuit if possible:                   true
Sort sets by size before set intersection:   false
Keep only longest tracklet(s) per detection: false
Reading infile, starting at Thu Feb 18 13:33:25 2016

Finished reading infile at Thu Feb 18 13:33:25 2016

Reading input took 0.0000000000 seconds.
Finished filtering, writing output starting at Thu Feb 18 13:33:25 2016

Completed after 0.0000000000 seconds.
Finished successfully finished at Thu Feb 18 13:33:25 2016

This process (46359) memory usage: 
------------------------------------------
------------------------------------------

RemoveSubsets:
---------------
Input file:                                  controlRun/source1/trackletsPurified/59606.tracklets.purified
Output file:                                 controlRun/source1/trackletsFinal/59606.tracklets.final
RemoveSubsets:                               false
Short-circuit if possible:                   true
Sort sets by size before set intersection:   false
Keep only longest tracklet(s) per detection: false
Reading infile, starting at Thu Feb 18 13:33:25 2016

Finished reading infile at Thu Feb 18 13:33:25 2016

Reading input took 0.0000000000 seconds.
Finished filtering, writing output starting at Thu Feb 18 13:33:25 2016

Completed after 0.0000000000 seconds.
Finished successfully finished at Thu Feb 18 13:33:25 2016

This process (46361) memory usage: 
------------------------------------------
------------------------------------------

RemoveSubsets:
---------------
Input file:                                  controlRun/source1/trackletsPurified/59607.tracklets.purified
Output file:                                 controlRun/source1/trackletsFinal/59607.tracklets.final
RemoveSubsets:                               false
Short-circuit if possible:                   true
Sort sets by size before set intersection:   false
Keep only longest tracklet(s) per detection: false
Reading infile, starting at Thu Feb 18 13:33:25 2016

Finished reading infile at Thu Feb 18 13:33:25 2016

Reading input took 0.0000000000 seconds.
Finished filtering, writing output starting at Thu Feb 18 13:33:25 2016

Completed after 0.0000000000 seconds.
Finished successfully finished at Thu Feb 18 13:33:25 2016

This process (46363) memory usage: 
------------------------------------------
------------------------------------------

RemoveSubsets:
---------------
Input file:                                  controlRun/source1/trackletsPurified/59608.tracklets.purified
Output file:                                 controlRun/source1/trackletsFinal/59608.tracklets.final
RemoveSubsets:                               false
Short-circuit if possible:                   true
Sort sets by size before set intersection:   false
Keep only longest tracklet(s) per detection: false
Reading infile, starting at Thu Feb 18 13:33:26 2016

Finished reading infile at Thu Feb 18 13:33:26 2016

Reading input took 0.0000000000 seconds.
Finished filtering, writing output starting at Thu Feb 18 13:33:26 2016

Completed after 0.0000000000 seconds.
Finished successfully finished at Thu Feb 18 13:33:26 2016

This process (46365) memory usage: 
------------------------------------------
------------------------------------------

RemoveSubsets:
---------------
Input file:                                  controlRun/source1/trackletsPurified/59609.tracklets.purified
Output file:                                 controlRun/source1/trackletsFinal/59609.tracklets.final
RemoveSubsets:                               false
Short-circuit if possible:                   true
Sort sets by size before set intersection:   false
Keep only longest tracklet(s) per detection: false
Reading infile, starting at Thu Feb 18 13:33:26 2016

Finished reading infile at Thu Feb 18 13:33:26 2016

Reading input took 0.0000000000 seconds.
Finished filtering, writing output starting at Thu Feb 18 13:33:26 2016

Completed after 0.0000000000 seconds.
Finished successfully finished at Thu Feb 18 13:33:26 2016

This process (46367) memory usage: 
------------------------------------------
------------------------------------------

