RemoveSubsets:
---------------
Input file:                                  controlRun/source1/trackletsPurified/59580.tracklets.purified
Output file:                                 controlRun/source1/trackletsFinal/59580.tracklets.final
RemoveSubsets:                               false
Short-circuit if possible:                   true
Sort sets by size before set intersection:   false
Keep only longest tracklet(s) per detection: false
Reading infile, starting at Fri Feb 19 10:40:42 2016

Finished reading infile at Fri Feb 19 10:40:42 2016

Reading input took 0.0000000000 seconds.
Finished filtering, writing output starting at Fri Feb 19 10:40:42 2016

Completed after 0.0000000000 seconds.
Finished successfully finished at Fri Feb 19 10:40:42 2016

This process (7983) memory usage: 
------------------------------------------
------------------------------------------

RemoveSubsets:
---------------
Input file:                                  controlRun/source1/trackletsPurified/59581.tracklets.purified
Output file:                                 controlRun/source1/trackletsFinal/59581.tracklets.final
RemoveSubsets:                               false
Short-circuit if possible:                   true
Sort sets by size before set intersection:   false
Keep only longest tracklet(s) per detection: false
Reading infile, starting at Fri Feb 19 10:40:42 2016

Finished reading infile at Fri Feb 19 10:40:42 2016

Reading input took 0.0000000000 seconds.
Finished filtering, writing output starting at Fri Feb 19 10:40:42 2016

Completed after 0.0000000000 seconds.
Finished successfully finished at Fri Feb 19 10:40:42 2016

This process (7985) memory usage: 
------------------------------------------
------------------------------------------

RemoveSubsets:
---------------
Input file:                                  controlRun/source1/trackletsPurified/59582.tracklets.purified
Output file:                                 controlRun/source1/trackletsFinal/59582.tracklets.final
RemoveSubsets:                               false
Short-circuit if possible:                   true
Sort sets by size before set intersection:   false
Keep only longest tracklet(s) per detection: false
Reading infile, starting at Fri Feb 19 10:40:42 2016

Finished reading infile at Fri Feb 19 10:40:42 2016

Reading input took 0.0000000000 seconds.
Finished filtering, writing output starting at Fri Feb 19 10:40:42 2016

Completed after 0.0000000000 seconds.
Finished successfully finished at Fri Feb 19 10:40:42 2016

This process (7987) memory usage: 
------------------------------------------
------------------------------------------

RemoveSubsets:
---------------
Input file:                                  controlRun/source1/trackletsPurified/59583.tracklets.purified
Output file:                                 controlRun/source1/trackletsFinal/59583.tracklets.final
RemoveSubsets:                               false
Short-circuit if possible:                   true
Sort sets by size before set intersection:   false
Keep only longest tracklet(s) per detection: false
Reading infile, starting at Fri Feb 19 10:40:42 2016

Finished reading infile at Fri Feb 19 10:40:42 2016

Reading input took 0.0000000000 seconds.
Finished filtering, writing output starting at Fri Feb 19 10:40:42 2016

Completed after 0.0000000000 seconds.
Finished successfully finished at Fri Feb 19 10:40:42 2016

This process (7989) memory usage: 
------------------------------------------
------------------------------------------

RemoveSubsets:
---------------
Input file:                                  controlRun/source1/trackletsPurified/59584.tracklets.purified
Output file:                                 controlRun/source1/trackletsFinal/59584.tracklets.final
RemoveSubsets:                               false
Short-circuit if possible:                   true
Sort sets by size before set intersection:   false
Keep only longest tracklet(s) per detection: false
Reading infile, starting at Fri Feb 19 10:40:42 2016

Finished reading infile at Fri Feb 19 10:40:42 2016

Reading input took 0.0000000000 seconds.
Finished filtering, writing output starting at Fri Feb 19 10:40:42 2016

Completed after 0.0000000000 seconds.
Finished successfully finished at Fri Feb 19 10:40:42 2016

This process (7991) memory usage: 
------------------------------------------
------------------------------------------

RemoveSubsets:
---------------
Input file:                                  controlRun/source1/trackletsPurified/59585.tracklets.purified
Output file:                                 controlRun/source1/trackletsFinal/59585.tracklets.final
RemoveSubsets:                               false
Short-circuit if possible:                   true
Sort sets by size before set intersection:   false
Keep only longest tracklet(s) per detection: false
Reading infile, starting at Fri Feb 19 10:40:42 2016

Finished reading infile at Fri Feb 19 10:40:42 2016

Reading input took 0.0000000000 seconds.
Finished filtering, writing output starting at Fri Feb 19 10:40:42 2016

Completed after 0.0000000000 seconds.
Finished successfully finished at Fri Feb 19 10:40:42 2016

This process (7993) memory usage: 
------------------------------------------
------------------------------------------

RemoveSubsets:
---------------
Input file:                                  controlRun/source1/trackletsPurified/59586.tracklets.purified
Output file:                                 controlRun/source1/trackletsFinal/59586.tracklets.final
RemoveSubsets:                               false
Short-circuit if possible:                   true
Sort sets by size before set intersection:   false
Keep only longest tracklet(s) per detection: false
Reading infile, starting at Fri Feb 19 10:40:42 2016

Finished reading infile at Fri Feb 19 10:40:42 2016

Reading input took 0.0000000000 seconds.
Finished filtering, writing output starting at Fri Feb 19 10:40:42 2016

Completed after 0.0000000000 seconds.
Finished successfully finished at Fri Feb 19 10:40:42 2016

This process (7995) memory usage: 
------------------------------------------
------------------------------------------

RemoveSubsets:
---------------
Input file:                                  controlRun/source1/trackletsPurified/59587.tracklets.purified
Output file:                                 controlRun/source1/trackletsFinal/59587.tracklets.final
RemoveSubsets:                               false
Short-circuit if possible:                   true
Sort sets by size before set intersection:   false
Keep only longest tracklet(s) per detection: false
Reading infile, starting at Fri Feb 19 10:40:42 2016

Finished reading infile at Fri Feb 19 10:40:42 2016

Reading input took 0.0000000000 seconds.
Finished filtering, writing output starting at Fri Feb 19 10:40:42 2016

Completed after 0.0000000000 seconds.
Finished successfully finished at Fri Feb 19 10:40:42 2016

This process (7997) memory usage: 
------------------------------------------
------------------------------------------

RemoveSubsets:
---------------
Input file:                                  controlRun/source1/trackletsPurified/59588.tracklets.purified
Output file:                                 controlRun/source1/trackletsFinal/59588.tracklets.final
RemoveSubsets:                               false
Short-circuit if possible:                   true
Sort sets by size before set intersection:   false
Keep only longest tracklet(s) per detection: false
Reading infile, starting at Fri Feb 19 10:40:42 2016

Finished reading infile at Fri Feb 19 10:40:42 2016

Reading input took 0.0000000000 seconds.
Finished filtering, writing output starting at Fri Feb 19 10:40:42 2016

Completed after 0.0000000000 seconds.
Finished successfully finished at Fri Feb 19 10:40:42 2016

This process (7999) memory usage: 
------------------------------------------
------------------------------------------

RemoveSubsets:
---------------
Input file:                                  controlRun/source1/trackletsPurified/59589.tracklets.purified
Output file:                                 controlRun/source1/trackletsFinal/59589.tracklets.final
RemoveSubsets:                               false
Short-circuit if possible:                   true
Sort sets by size before set intersection:   false
Keep only longest tracklet(s) per detection: false
Reading infile, starting at Fri Feb 19 10:40:42 2016

Finished reading infile at Fri Feb 19 10:40:42 2016

Reading input took 0.0000000000 seconds.
Finished filtering, writing output starting at Fri Feb 19 10:40:42 2016

Completed after 0.0000000000 seconds.
Finished successfully finished at Fri Feb 19 10:40:42 2016

This process (8001) memory usage: 
------------------------------------------
------------------------------------------

RemoveSubsets:
---------------
Input file:                                  controlRun/source1/trackletsPurified/59590.tracklets.purified
Output file:                                 controlRun/source1/trackletsFinal/59590.tracklets.final
RemoveSubsets:                               false
Short-circuit if possible:                   true
Sort sets by size before set intersection:   false
Keep only longest tracklet(s) per detection: false
Reading infile, starting at Fri Feb 19 10:40:42 2016

Finished reading infile at Fri Feb 19 10:40:42 2016

Reading input took 0.0000000000 seconds.
Finished filtering, writing output starting at Fri Feb 19 10:40:42 2016

Completed after 0.0000000000 seconds.
Finished successfully finished at Fri Feb 19 10:40:42 2016

This process (8003) memory usage: 
------------------------------------------
------------------------------------------

RemoveSubsets:
---------------
Input file:                                  controlRun/source1/trackletsPurified/59591.tracklets.purified
Output file:                                 controlRun/source1/trackletsFinal/59591.tracklets.final
RemoveSubsets:                               false
Short-circuit if possible:                   true
Sort sets by size before set intersection:   false
Keep only longest tracklet(s) per detection: false
Reading infile, starting at Fri Feb 19 10:40:42 2016

Finished reading infile at Fri Feb 19 10:40:42 2016

Reading input took 0.0000000000 seconds.
Finished filtering, writing output starting at Fri Feb 19 10:40:42 2016

Completed after 0.0000000000 seconds.
Finished successfully finished at Fri Feb 19 10:40:42 2016

This process (8005) memory usage: 
------------------------------------------
------------------------------------------

RemoveSubsets:
---------------
Input file:                                  controlRun/source1/trackletsPurified/59592.tracklets.purified
Output file:                                 controlRun/source1/trackletsFinal/59592.tracklets.final
RemoveSubsets:                               false
Short-circuit if possible:                   true
Sort sets by size before set intersection:   false
Keep only longest tracklet(s) per detection: false
Reading infile, starting at Fri Feb 19 10:40:42 2016

Finished reading infile at Fri Feb 19 10:40:42 2016

Reading input took 0.0000000000 seconds.
Finished filtering, writing output starting at Fri Feb 19 10:40:42 2016

Completed after 0.0000000000 seconds.
Finished successfully finished at Fri Feb 19 10:40:42 2016

This process (8007) memory usage: 
------------------------------------------
------------------------------------------

RemoveSubsets:
---------------
Input file:                                  controlRun/source1/trackletsPurified/59593.tracklets.purified
Output file:                                 controlRun/source1/trackletsFinal/59593.tracklets.final
RemoveSubsets:                               false
Short-circuit if possible:                   true
Sort sets by size before set intersection:   false
Keep only longest tracklet(s) per detection: false
Reading infile, starting at Fri Feb 19 10:40:42 2016

Finished reading infile at Fri Feb 19 10:40:42 2016

Reading input took 0.0000000000 seconds.
Finished filtering, writing output starting at Fri Feb 19 10:40:42 2016

Completed after 0.0000000000 seconds.
Finished successfully finished at Fri Feb 19 10:40:42 2016

This process (8009) memory usage: 
------------------------------------------
------------------------------------------

RemoveSubsets:
---------------
Input file:                                  controlRun/source1/trackletsPurified/59594.tracklets.purified
Output file:                                 controlRun/source1/trackletsFinal/59594.tracklets.final
RemoveSubsets:                               false
Short-circuit if possible:                   true
Sort sets by size before set intersection:   false
Keep only longest tracklet(s) per detection: false
Reading infile, starting at Fri Feb 19 10:40:42 2016

Finished reading infile at Fri Feb 19 10:40:42 2016

Reading input took 0.0000000000 seconds.
Finished filtering, writing output starting at Fri Feb 19 10:40:42 2016

Completed after 0.0000000000 seconds.
Finished successfully finished at Fri Feb 19 10:40:42 2016

This process (8011) memory usage: 
------------------------------------------
------------------------------------------

RemoveSubsets:
---------------
Input file:                                  controlRun/source1/trackletsPurified/59595.tracklets.purified
Output file:                                 controlRun/source1/trackletsFinal/59595.tracklets.final
RemoveSubsets:                               false
Short-circuit if possible:                   true
Sort sets by size before set intersection:   false
Keep only longest tracklet(s) per detection: false
Reading infile, starting at Fri Feb 19 10:40:42 2016

Finished reading infile at Fri Feb 19 10:40:42 2016

Reading input took 0.0000000000 seconds.
Finished filtering, writing output starting at Fri Feb 19 10:40:42 2016

Completed after 0.0000000000 seconds.
Finished successfully finished at Fri Feb 19 10:40:42 2016

This process (8013) memory usage: 
------------------------------------------
------------------------------------------

RemoveSubsets:
---------------
Input file:                                  controlRun/source1/trackletsPurified/59596.tracklets.purified
Output file:                                 controlRun/source1/trackletsFinal/59596.tracklets.final
RemoveSubsets:                               false
Short-circuit if possible:                   true
Sort sets by size before set intersection:   false
Keep only longest tracklet(s) per detection: false
Reading infile, starting at Fri Feb 19 10:40:42 2016

Finished reading infile at Fri Feb 19 10:40:42 2016

Reading input took 0.0000000000 seconds.
Finished filtering, writing output starting at Fri Feb 19 10:40:42 2016

Completed after 0.0000000000 seconds.
Finished successfully finished at Fri Feb 19 10:40:42 2016

This process (8015) memory usage: 
------------------------------------------
------------------------------------------

RemoveSubsets:
---------------
Input file:                                  controlRun/source1/trackletsPurified/59597.tracklets.purified
Output file:                                 controlRun/source1/trackletsFinal/59597.tracklets.final
RemoveSubsets:                               false
Short-circuit if possible:                   true
Sort sets by size before set intersection:   false
Keep only longest tracklet(s) per detection: false
Reading infile, starting at Fri Feb 19 10:40:42 2016

Finished reading infile at Fri Feb 19 10:40:42 2016

Reading input took 0.0000000000 seconds.
Finished filtering, writing output starting at Fri Feb 19 10:40:42 2016

Completed after 0.0000000000 seconds.
Finished successfully finished at Fri Feb 19 10:40:42 2016

This process (8017) memory usage: 
------------------------------------------
------------------------------------------

RemoveSubsets:
---------------
Input file:                                  controlRun/source1/trackletsPurified/59598.tracklets.purified
Output file:                                 controlRun/source1/trackletsFinal/59598.tracklets.final
RemoveSubsets:                               false
Short-circuit if possible:                   true
Sort sets by size before set intersection:   false
Keep only longest tracklet(s) per detection: false
Reading infile, starting at Fri Feb 19 10:40:42 2016

Finished reading infile at Fri Feb 19 10:40:42 2016

Reading input took 0.0000000000 seconds.
Finished filtering, writing output starting at Fri Feb 19 10:40:42 2016

Completed after 0.0000000000 seconds.
Finished successfully finished at Fri Feb 19 10:40:42 2016

This process (8019) memory usage: 
------------------------------------------
------------------------------------------

RemoveSubsets:
---------------
Input file:                                  controlRun/source1/trackletsPurified/59599.tracklets.purified
Output file:                                 controlRun/source1/trackletsFinal/59599.tracklets.final
RemoveSubsets:                               false
Short-circuit if possible:                   true
Sort sets by size before set intersection:   false
Keep only longest tracklet(s) per detection: false
Reading infile, starting at Fri Feb 19 10:40:42 2016

Finished reading infile at Fri Feb 19 10:40:42 2016

Reading input took 0.0000000000 seconds.
Finished filtering, writing output starting at Fri Feb 19 10:40:42 2016

Completed after 0.0000000000 seconds.
Finished successfully finished at Fri Feb 19 10:40:42 2016

This process (8021) memory usage: 
------------------------------------------
------------------------------------------

RemoveSubsets:
---------------
Input file:                                  controlRun/source1/trackletsPurified/59600.tracklets.purified
Output file:                                 controlRun/source1/trackletsFinal/59600.tracklets.final
RemoveSubsets:                               false
Short-circuit if possible:                   true
Sort sets by size before set intersection:   false
Keep only longest tracklet(s) per detection: false
Reading infile, starting at Fri Feb 19 10:40:42 2016

Finished reading infile at Fri Feb 19 10:40:42 2016

Reading input took 0.0000000000 seconds.
Finished filtering, writing output starting at Fri Feb 19 10:40:42 2016

Completed after 0.0000000000 seconds.
Finished successfully finished at Fri Feb 19 10:40:42 2016

This process (8023) memory usage: 
------------------------------------------
------------------------------------------

RemoveSubsets:
---------------
Input file:                                  controlRun/source1/trackletsPurified/59601.tracklets.purified
Output file:                                 controlRun/source1/trackletsFinal/59601.tracklets.final
RemoveSubsets:                               false
Short-circuit if possible:                   true
Sort sets by size before set intersection:   false
Keep only longest tracklet(s) per detection: false
Reading infile, starting at Fri Feb 19 10:40:42 2016

Finished reading infile at Fri Feb 19 10:40:42 2016

Reading input took 0.0000000000 seconds.
Finished filtering, writing output starting at Fri Feb 19 10:40:42 2016

Completed after 0.0000000000 seconds.
Finished successfully finished at Fri Feb 19 10:40:42 2016

This process (8025) memory usage: 
------------------------------------------
------------------------------------------

RemoveSubsets:
---------------
Input file:                                  controlRun/source1/trackletsPurified/59602.tracklets.purified
Output file:                                 controlRun/source1/trackletsFinal/59602.tracklets.final
RemoveSubsets:                               false
Short-circuit if possible:                   true
Sort sets by size before set intersection:   false
Keep only longest tracklet(s) per detection: false
Reading infile, starting at Fri Feb 19 10:40:42 2016

Finished reading infile at Fri Feb 19 10:40:42 2016

Reading input took 0.0000000000 seconds.
Finished filtering, writing output starting at Fri Feb 19 10:40:42 2016

Completed after 0.0000000000 seconds.
Finished successfully finished at Fri Feb 19 10:40:42 2016

This process (8027) memory usage: 
------------------------------------------
------------------------------------------

RemoveSubsets:
---------------
Input file:                                  controlRun/source1/trackletsPurified/59603.tracklets.purified
Output file:                                 controlRun/source1/trackletsFinal/59603.tracklets.final
RemoveSubsets:                               false
Short-circuit if possible:                   true
Sort sets by size before set intersection:   false
Keep only longest tracklet(s) per detection: false
Reading infile, starting at Fri Feb 19 10:40:42 2016

Finished reading infile at Fri Feb 19 10:40:42 2016

Reading input took 0.0000000000 seconds.
Finished filtering, writing output starting at Fri Feb 19 10:40:42 2016

Completed after 0.0000000000 seconds.
Finished successfully finished at Fri Feb 19 10:40:42 2016

This process (8029) memory usage: 
------------------------------------------
------------------------------------------

RemoveSubsets:
---------------
Input file:                                  controlRun/source1/trackletsPurified/59604.tracklets.purified
Output file:                                 controlRun/source1/trackletsFinal/59604.tracklets.final
RemoveSubsets:                               false
Short-circuit if possible:                   true
Sort sets by size before set intersection:   false
Keep only longest tracklet(s) per detection: false
Reading infile, starting at Fri Feb 19 10:40:42 2016

Finished reading infile at Fri Feb 19 10:40:42 2016

Reading input took 0.0000000000 seconds.
Finished filtering, writing output starting at Fri Feb 19 10:40:42 2016

Completed after 0.0000000000 seconds.
Finished successfully finished at Fri Feb 19 10:40:42 2016

This process (8031) memory usage: 
------------------------------------------
------------------------------------------

RemoveSubsets:
---------------
Input file:                                  controlRun/source1/trackletsPurified/59605.tracklets.purified
Output file:                                 controlRun/source1/trackletsFinal/59605.tracklets.final
RemoveSubsets:                               false
Short-circuit if possible:                   true
Sort sets by size before set intersection:   false
Keep only longest tracklet(s) per detection: false
Reading infile, starting at Fri Feb 19 10:40:42 2016

Finished reading infile at Fri Feb 19 10:40:42 2016

Reading input took 0.0000000000 seconds.
Finished filtering, writing output starting at Fri Feb 19 10:40:42 2016

Completed after 0.0000000000 seconds.
Finished successfully finished at Fri Feb 19 10:40:42 2016

This process (8033) memory usage: 
------------------------------------------
------------------------------------------

RemoveSubsets:
---------------
Input file:                                  controlRun/source1/trackletsPurified/59606.tracklets.purified
Output file:                                 controlRun/source1/trackletsFinal/59606.tracklets.final
RemoveSubsets:                               false
Short-circuit if possible:                   true
Sort sets by size before set intersection:   false
Keep only longest tracklet(s) per detection: false
Reading infile, starting at Fri Feb 19 10:40:42 2016

Finished reading infile at Fri Feb 19 10:40:42 2016

Reading input took 0.0000000000 seconds.
Finished filtering, writing output starting at Fri Feb 19 10:40:42 2016

Completed after 0.0000000000 seconds.
Finished successfully finished at Fri Feb 19 10:40:42 2016

This process (8035) memory usage: 
------------------------------------------
------------------------------------------

RemoveSubsets:
---------------
Input file:                                  controlRun/source1/trackletsPurified/59607.tracklets.purified
Output file:                                 controlRun/source1/trackletsFinal/59607.tracklets.final
RemoveSubsets:                               false
Short-circuit if possible:                   true
Sort sets by size before set intersection:   false
Keep only longest tracklet(s) per detection: false
Reading infile, starting at Fri Feb 19 10:40:42 2016

Finished reading infile at Fri Feb 19 10:40:42 2016

Reading input took 0.0000000000 seconds.
Finished filtering, writing output starting at Fri Feb 19 10:40:42 2016

Completed after 0.0000000000 seconds.
Finished successfully finished at Fri Feb 19 10:40:42 2016

This process (8037) memory usage: 
------------------------------------------
------------------------------------------

RemoveSubsets:
---------------
Input file:                                  controlRun/source1/trackletsPurified/59608.tracklets.purified
Output file:                                 controlRun/source1/trackletsFinal/59608.tracklets.final
RemoveSubsets:                               false
Short-circuit if possible:                   true
Sort sets by size before set intersection:   false
Keep only longest tracklet(s) per detection: false
Reading infile, starting at Fri Feb 19 10:40:42 2016

Finished reading infile at Fri Feb 19 10:40:42 2016

Reading input took 0.0000000000 seconds.
Finished filtering, writing output starting at Fri Feb 19 10:40:42 2016

Completed after 0.0000000000 seconds.
Finished successfully finished at Fri Feb 19 10:40:42 2016

This process (8039) memory usage: 
------------------------------------------
------------------------------------------

RemoveSubsets:
---------------
Input file:                                  controlRun/source1/trackletsPurified/59609.tracklets.purified
Output file:                                 controlRun/source1/trackletsFinal/59609.tracklets.final
RemoveSubsets:                               false
Short-circuit if possible:                   true
Sort sets by size before set intersection:   false
Keep only longest tracklet(s) per detection: false
Reading infile, starting at Fri Feb 19 10:40:42 2016

Finished reading infile at Fri Feb 19 10:40:42 2016

Reading input took 0.0000000000 seconds.
Finished filtering, writing output starting at Fri Feb 19 10:40:42 2016

Completed after 0.0000000000 seconds.
Finished successfully finished at Fri Feb 19 10:40:42 2016

This process (8041) memory usage: 
------------------------------------------
------------------------------------------

