RemoveSubsets:
---------------
Input file:                                  unittest/controlRun/source1/trackletsPurified/59580.tracklets.purified
Output file:                                 unittest/controlRun/source1/trackletsFinal/59580.tracklets.final
RemoveSubsets:                               false
Short-circuit if possible:                   true
Sort sets by size before set intersection:   false
Keep only longest tracklet(s) per detection: false
Reading infile, starting at Fri Feb 19 10:57:22 2016

Finished reading infile at Fri Feb 19 10:57:22 2016

Reading input took 0.0000000000 seconds.
Finished filtering, writing output starting at Fri Feb 19 10:57:22 2016

Completed after 0.0000000000 seconds.
Finished successfully finished at Fri Feb 19 10:57:22 2016

This process (19496) memory usage: 
------------------------------------------
------------------------------------------

RemoveSubsets:
---------------
Input file:                                  unittest/controlRun/source1/trackletsPurified/59581.tracklets.purified
Output file:                                 unittest/controlRun/source1/trackletsFinal/59581.tracklets.final
RemoveSubsets:                               false
Short-circuit if possible:                   true
Sort sets by size before set intersection:   false
Keep only longest tracklet(s) per detection: false
Reading infile, starting at Fri Feb 19 10:57:22 2016

Finished reading infile at Fri Feb 19 10:57:22 2016

Reading input took 0.0000000000 seconds.
Finished filtering, writing output starting at Fri Feb 19 10:57:22 2016

Completed after 0.0000000000 seconds.
Finished successfully finished at Fri Feb 19 10:57:22 2016

This process (19498) memory usage: 
------------------------------------------
------------------------------------------

RemoveSubsets:
---------------
Input file:                                  unittest/controlRun/source1/trackletsPurified/59582.tracklets.purified
Output file:                                 unittest/controlRun/source1/trackletsFinal/59582.tracklets.final
RemoveSubsets:                               false
Short-circuit if possible:                   true
Sort sets by size before set intersection:   false
Keep only longest tracklet(s) per detection: false
Reading infile, starting at Fri Feb 19 10:57:22 2016

Finished reading infile at Fri Feb 19 10:57:22 2016

Reading input took 0.0000000000 seconds.
Finished filtering, writing output starting at Fri Feb 19 10:57:22 2016

Completed after 0.0000000000 seconds.
Finished successfully finished at Fri Feb 19 10:57:22 2016

This process (19500) memory usage: 
------------------------------------------
------------------------------------------

RemoveSubsets:
---------------
Input file:                                  unittest/controlRun/source1/trackletsPurified/59583.tracklets.purified
Output file:                                 unittest/controlRun/source1/trackletsFinal/59583.tracklets.final
RemoveSubsets:                               false
Short-circuit if possible:                   true
Sort sets by size before set intersection:   false
Keep only longest tracklet(s) per detection: false
Reading infile, starting at Fri Feb 19 10:57:22 2016

Finished reading infile at Fri Feb 19 10:57:22 2016

Reading input took 0.0000000000 seconds.
Finished filtering, writing output starting at Fri Feb 19 10:57:22 2016

Completed after 0.0000000000 seconds.
Finished successfully finished at Fri Feb 19 10:57:22 2016

This process (19502) memory usage: 
------------------------------------------
------------------------------------------

RemoveSubsets:
---------------
Input file:                                  unittest/controlRun/source1/trackletsPurified/59584.tracklets.purified
Output file:                                 unittest/controlRun/source1/trackletsFinal/59584.tracklets.final
RemoveSubsets:                               false
Short-circuit if possible:                   true
Sort sets by size before set intersection:   false
Keep only longest tracklet(s) per detection: false
Reading infile, starting at Fri Feb 19 10:57:22 2016

Finished reading infile at Fri Feb 19 10:57:22 2016

Reading input took 0.0000000000 seconds.
Finished filtering, writing output starting at Fri Feb 19 10:57:22 2016

Completed after 0.0000000000 seconds.
Finished successfully finished at Fri Feb 19 10:57:22 2016

This process (19504) memory usage: 
------------------------------------------
------------------------------------------

RemoveSubsets:
---------------
Input file:                                  unittest/controlRun/source1/trackletsPurified/59585.tracklets.purified
Output file:                                 unittest/controlRun/source1/trackletsFinal/59585.tracklets.final
RemoveSubsets:                               false
Short-circuit if possible:                   true
Sort sets by size before set intersection:   false
Keep only longest tracklet(s) per detection: false
Reading infile, starting at Fri Feb 19 10:57:22 2016

Finished reading infile at Fri Feb 19 10:57:22 2016

Reading input took 0.0000000000 seconds.
Finished filtering, writing output starting at Fri Feb 19 10:57:22 2016

Completed after 0.0000000000 seconds.
Finished successfully finished at Fri Feb 19 10:57:22 2016

This process (19506) memory usage: 
------------------------------------------
------------------------------------------

RemoveSubsets:
---------------
Input file:                                  unittest/controlRun/source1/trackletsPurified/59586.tracklets.purified
Output file:                                 unittest/controlRun/source1/trackletsFinal/59586.tracklets.final
RemoveSubsets:                               false
Short-circuit if possible:                   true
Sort sets by size before set intersection:   false
Keep only longest tracklet(s) per detection: false
Reading infile, starting at Fri Feb 19 10:57:22 2016

Finished reading infile at Fri Feb 19 10:57:22 2016

Reading input took 0.0000000000 seconds.
Finished filtering, writing output starting at Fri Feb 19 10:57:22 2016

Completed after 0.0000000000 seconds.
Finished successfully finished at Fri Feb 19 10:57:22 2016

This process (19508) memory usage: 
------------------------------------------
------------------------------------------

RemoveSubsets:
---------------
Input file:                                  unittest/controlRun/source1/trackletsPurified/59587.tracklets.purified
Output file:                                 unittest/controlRun/source1/trackletsFinal/59587.tracklets.final
RemoveSubsets:                               false
Short-circuit if possible:                   true
Sort sets by size before set intersection:   false
Keep only longest tracklet(s) per detection: false
Reading infile, starting at Fri Feb 19 10:57:22 2016

Finished reading infile at Fri Feb 19 10:57:22 2016

Reading input took 0.0000000000 seconds.
Finished filtering, writing output starting at Fri Feb 19 10:57:22 2016

Completed after 0.0000000000 seconds.
Finished successfully finished at Fri Feb 19 10:57:22 2016

This process (19510) memory usage: 
------------------------------------------
------------------------------------------

RemoveSubsets:
---------------
Input file:                                  unittest/controlRun/source1/trackletsPurified/59588.tracklets.purified
Output file:                                 unittest/controlRun/source1/trackletsFinal/59588.tracklets.final
RemoveSubsets:                               false
Short-circuit if possible:                   true
Sort sets by size before set intersection:   false
Keep only longest tracklet(s) per detection: false
Reading infile, starting at Fri Feb 19 10:57:22 2016

Finished reading infile at Fri Feb 19 10:57:22 2016

Reading input took 0.0000000000 seconds.
Finished filtering, writing output starting at Fri Feb 19 10:57:22 2016

Completed after 0.0000000000 seconds.
Finished successfully finished at Fri Feb 19 10:57:22 2016

This process (19512) memory usage: 
------------------------------------------
------------------------------------------

RemoveSubsets:
---------------
Input file:                                  unittest/controlRun/source1/trackletsPurified/59589.tracklets.purified
Output file:                                 unittest/controlRun/source1/trackletsFinal/59589.tracklets.final
RemoveSubsets:                               false
Short-circuit if possible:                   true
Sort sets by size before set intersection:   false
Keep only longest tracklet(s) per detection: false
Reading infile, starting at Fri Feb 19 10:57:22 2016

Finished reading infile at Fri Feb 19 10:57:22 2016

Reading input took 0.0000000000 seconds.
Finished filtering, writing output starting at Fri Feb 19 10:57:22 2016

Completed after 0.0000000000 seconds.
Finished successfully finished at Fri Feb 19 10:57:22 2016

This process (19514) memory usage: 
------------------------------------------
------------------------------------------

RemoveSubsets:
---------------
Input file:                                  unittest/controlRun/source1/trackletsPurified/59590.tracklets.purified
Output file:                                 unittest/controlRun/source1/trackletsFinal/59590.tracklets.final
RemoveSubsets:                               false
Short-circuit if possible:                   true
Sort sets by size before set intersection:   false
Keep only longest tracklet(s) per detection: false
Reading infile, starting at Fri Feb 19 10:57:22 2016

Finished reading infile at Fri Feb 19 10:57:22 2016

Reading input took 0.0000000000 seconds.
Finished filtering, writing output starting at Fri Feb 19 10:57:22 2016

Completed after 0.0000000000 seconds.
Finished successfully finished at Fri Feb 19 10:57:22 2016

This process (19516) memory usage: 
------------------------------------------
------------------------------------------

RemoveSubsets:
---------------
Input file:                                  unittest/controlRun/source1/trackletsPurified/59591.tracklets.purified
Output file:                                 unittest/controlRun/source1/trackletsFinal/59591.tracklets.final
RemoveSubsets:                               false
Short-circuit if possible:                   true
Sort sets by size before set intersection:   false
Keep only longest tracklet(s) per detection: false
Reading infile, starting at Fri Feb 19 10:57:22 2016

Finished reading infile at Fri Feb 19 10:57:22 2016

Reading input took 0.0000000000 seconds.
Finished filtering, writing output starting at Fri Feb 19 10:57:22 2016

Completed after 0.0000000000 seconds.
Finished successfully finished at Fri Feb 19 10:57:22 2016

This process (19518) memory usage: 
------------------------------------------
------------------------------------------

RemoveSubsets:
---------------
Input file:                                  unittest/controlRun/source1/trackletsPurified/59592.tracklets.purified
Output file:                                 unittest/controlRun/source1/trackletsFinal/59592.tracklets.final
RemoveSubsets:                               false
Short-circuit if possible:                   true
Sort sets by size before set intersection:   false
Keep only longest tracklet(s) per detection: false
Reading infile, starting at Fri Feb 19 10:57:22 2016

Finished reading infile at Fri Feb 19 10:57:22 2016

Reading input took 0.0000000000 seconds.
Finished filtering, writing output starting at Fri Feb 19 10:57:22 2016

Completed after 0.0000000000 seconds.
Finished successfully finished at Fri Feb 19 10:57:22 2016

This process (19520) memory usage: 
------------------------------------------
------------------------------------------

RemoveSubsets:
---------------
Input file:                                  unittest/controlRun/source1/trackletsPurified/59593.tracklets.purified
Output file:                                 unittest/controlRun/source1/trackletsFinal/59593.tracklets.final
RemoveSubsets:                               false
Short-circuit if possible:                   true
Sort sets by size before set intersection:   false
Keep only longest tracklet(s) per detection: false
Reading infile, starting at Fri Feb 19 10:57:22 2016

Finished reading infile at Fri Feb 19 10:57:22 2016

Reading input took 0.0000000000 seconds.
Finished filtering, writing output starting at Fri Feb 19 10:57:22 2016

Completed after 0.0000000000 seconds.
Finished successfully finished at Fri Feb 19 10:57:22 2016

This process (19522) memory usage: 
------------------------------------------
------------------------------------------

RemoveSubsets:
---------------
Input file:                                  unittest/controlRun/source1/trackletsPurified/59594.tracklets.purified
Output file:                                 unittest/controlRun/source1/trackletsFinal/59594.tracklets.final
RemoveSubsets:                               false
Short-circuit if possible:                   true
Sort sets by size before set intersection:   false
Keep only longest tracklet(s) per detection: false
Reading infile, starting at Fri Feb 19 10:57:22 2016

Finished reading infile at Fri Feb 19 10:57:22 2016

Reading input took 0.0000000000 seconds.
Finished filtering, writing output starting at Fri Feb 19 10:57:22 2016

Completed after 0.0000000000 seconds.
Finished successfully finished at Fri Feb 19 10:57:22 2016

This process (19524) memory usage: 
------------------------------------------
------------------------------------------

RemoveSubsets:
---------------
Input file:                                  unittest/controlRun/source1/trackletsPurified/59595.tracklets.purified
Output file:                                 unittest/controlRun/source1/trackletsFinal/59595.tracklets.final
RemoveSubsets:                               false
Short-circuit if possible:                   true
Sort sets by size before set intersection:   false
Keep only longest tracklet(s) per detection: false
Reading infile, starting at Fri Feb 19 10:57:22 2016

Finished reading infile at Fri Feb 19 10:57:22 2016

Reading input took 0.0000000000 seconds.
Finished filtering, writing output starting at Fri Feb 19 10:57:22 2016

Completed after 0.0000000000 seconds.
Finished successfully finished at Fri Feb 19 10:57:22 2016

This process (19526) memory usage: 
------------------------------------------
------------------------------------------

RemoveSubsets:
---------------
Input file:                                  unittest/controlRun/source1/trackletsPurified/59596.tracklets.purified
Output file:                                 unittest/controlRun/source1/trackletsFinal/59596.tracklets.final
RemoveSubsets:                               false
Short-circuit if possible:                   true
Sort sets by size before set intersection:   false
Keep only longest tracklet(s) per detection: false
Reading infile, starting at Fri Feb 19 10:57:22 2016

Finished reading infile at Fri Feb 19 10:57:22 2016

Reading input took 0.0000000000 seconds.
Finished filtering, writing output starting at Fri Feb 19 10:57:22 2016

Completed after 0.0000000000 seconds.
Finished successfully finished at Fri Feb 19 10:57:22 2016

This process (19528) memory usage: 
------------------------------------------
------------------------------------------

RemoveSubsets:
---------------
Input file:                                  unittest/controlRun/source1/trackletsPurified/59597.tracklets.purified
Output file:                                 unittest/controlRun/source1/trackletsFinal/59597.tracklets.final
RemoveSubsets:                               false
Short-circuit if possible:                   true
Sort sets by size before set intersection:   false
Keep only longest tracklet(s) per detection: false
Reading infile, starting at Fri Feb 19 10:57:22 2016

Finished reading infile at Fri Feb 19 10:57:22 2016

Reading input took 0.0000000000 seconds.
Finished filtering, writing output starting at Fri Feb 19 10:57:22 2016

Completed after 0.0000000000 seconds.
Finished successfully finished at Fri Feb 19 10:57:22 2016

This process (19530) memory usage: 
------------------------------------------
------------------------------------------

RemoveSubsets:
---------------
Input file:                                  unittest/controlRun/source1/trackletsPurified/59598.tracklets.purified
Output file:                                 unittest/controlRun/source1/trackletsFinal/59598.tracklets.final
RemoveSubsets:                               false
Short-circuit if possible:                   true
Sort sets by size before set intersection:   false
Keep only longest tracklet(s) per detection: false
Reading infile, starting at Fri Feb 19 10:57:22 2016

Finished reading infile at Fri Feb 19 10:57:22 2016

Reading input took 0.0000000000 seconds.
Finished filtering, writing output starting at Fri Feb 19 10:57:22 2016

Completed after 0.0000000000 seconds.
Finished successfully finished at Fri Feb 19 10:57:22 2016

This process (19532) memory usage: 
------------------------------------------
------------------------------------------

RemoveSubsets:
---------------
Input file:                                  unittest/controlRun/source1/trackletsPurified/59599.tracklets.purified
Output file:                                 unittest/controlRun/source1/trackletsFinal/59599.tracklets.final
RemoveSubsets:                               false
Short-circuit if possible:                   true
Sort sets by size before set intersection:   false
Keep only longest tracklet(s) per detection: false
Reading infile, starting at Fri Feb 19 10:57:22 2016

Finished reading infile at Fri Feb 19 10:57:22 2016

Reading input took 0.0000000000 seconds.
Finished filtering, writing output starting at Fri Feb 19 10:57:22 2016

Completed after 0.0000000000 seconds.
Finished successfully finished at Fri Feb 19 10:57:22 2016

This process (19534) memory usage: 
------------------------------------------
------------------------------------------

RemoveSubsets:
---------------
Input file:                                  unittest/controlRun/source1/trackletsPurified/59600.tracklets.purified
Output file:                                 unittest/controlRun/source1/trackletsFinal/59600.tracklets.final
RemoveSubsets:                               false
Short-circuit if possible:                   true
Sort sets by size before set intersection:   false
Keep only longest tracklet(s) per detection: false
Reading infile, starting at Fri Feb 19 10:57:22 2016

Finished reading infile at Fri Feb 19 10:57:22 2016

Reading input took 0.0000000000 seconds.
Finished filtering, writing output starting at Fri Feb 19 10:57:22 2016

Completed after 0.0000000000 seconds.
Finished successfully finished at Fri Feb 19 10:57:22 2016

This process (19536) memory usage: 
------------------------------------------
------------------------------------------

RemoveSubsets:
---------------
Input file:                                  unittest/controlRun/source1/trackletsPurified/59601.tracklets.purified
Output file:                                 unittest/controlRun/source1/trackletsFinal/59601.tracklets.final
RemoveSubsets:                               false
Short-circuit if possible:                   true
Sort sets by size before set intersection:   false
Keep only longest tracklet(s) per detection: false
Reading infile, starting at Fri Feb 19 10:57:22 2016

Finished reading infile at Fri Feb 19 10:57:22 2016

Reading input took 0.0000000000 seconds.
Finished filtering, writing output starting at Fri Feb 19 10:57:22 2016

Completed after 0.0000000000 seconds.
Finished successfully finished at Fri Feb 19 10:57:22 2016

This process (19538) memory usage: 
------------------------------------------
------------------------------------------

RemoveSubsets:
---------------
Input file:                                  unittest/controlRun/source1/trackletsPurified/59602.tracklets.purified
Output file:                                 unittest/controlRun/source1/trackletsFinal/59602.tracklets.final
RemoveSubsets:                               false
Short-circuit if possible:                   true
Sort sets by size before set intersection:   false
Keep only longest tracklet(s) per detection: false
Reading infile, starting at Fri Feb 19 10:57:22 2016

Finished reading infile at Fri Feb 19 10:57:22 2016

Reading input took 0.0000000000 seconds.
Finished filtering, writing output starting at Fri Feb 19 10:57:22 2016

Completed after 0.0000000000 seconds.
Finished successfully finished at Fri Feb 19 10:57:22 2016

This process (19540) memory usage: 
------------------------------------------
------------------------------------------

RemoveSubsets:
---------------
Input file:                                  unittest/controlRun/source1/trackletsPurified/59603.tracklets.purified
Output file:                                 unittest/controlRun/source1/trackletsFinal/59603.tracklets.final
RemoveSubsets:                               false
Short-circuit if possible:                   true
Sort sets by size before set intersection:   false
Keep only longest tracklet(s) per detection: false
Reading infile, starting at Fri Feb 19 10:57:22 2016

Finished reading infile at Fri Feb 19 10:57:22 2016

Reading input took 0.0000000000 seconds.
Finished filtering, writing output starting at Fri Feb 19 10:57:22 2016

Completed after 0.0000000000 seconds.
Finished successfully finished at Fri Feb 19 10:57:22 2016

This process (19542) memory usage: 
------------------------------------------
------------------------------------------

RemoveSubsets:
---------------
Input file:                                  unittest/controlRun/source1/trackletsPurified/59604.tracklets.purified
Output file:                                 unittest/controlRun/source1/trackletsFinal/59604.tracklets.final
RemoveSubsets:                               false
Short-circuit if possible:                   true
Sort sets by size before set intersection:   false
Keep only longest tracklet(s) per detection: false
Reading infile, starting at Fri Feb 19 10:57:22 2016

Finished reading infile at Fri Feb 19 10:57:22 2016

Reading input took 0.0000000000 seconds.
Finished filtering, writing output starting at Fri Feb 19 10:57:22 2016

Completed after 0.0000000000 seconds.
Finished successfully finished at Fri Feb 19 10:57:22 2016

This process (19544) memory usage: 
------------------------------------------
------------------------------------------

RemoveSubsets:
---------------
Input file:                                  unittest/controlRun/source1/trackletsPurified/59605.tracklets.purified
Output file:                                 unittest/controlRun/source1/trackletsFinal/59605.tracklets.final
RemoveSubsets:                               false
Short-circuit if possible:                   true
Sort sets by size before set intersection:   false
Keep only longest tracklet(s) per detection: false
Reading infile, starting at Fri Feb 19 10:57:22 2016

Finished reading infile at Fri Feb 19 10:57:22 2016

Reading input took 0.0000000000 seconds.
Finished filtering, writing output starting at Fri Feb 19 10:57:22 2016

Completed after 0.0000000000 seconds.
Finished successfully finished at Fri Feb 19 10:57:22 2016

This process (19546) memory usage: 
------------------------------------------
------------------------------------------

RemoveSubsets:
---------------
Input file:                                  unittest/controlRun/source1/trackletsPurified/59606.tracklets.purified
Output file:                                 unittest/controlRun/source1/trackletsFinal/59606.tracklets.final
RemoveSubsets:                               false
Short-circuit if possible:                   true
Sort sets by size before set intersection:   false
Keep only longest tracklet(s) per detection: false
Reading infile, starting at Fri Feb 19 10:57:22 2016

Finished reading infile at Fri Feb 19 10:57:22 2016

Reading input took 0.0000000000 seconds.
Finished filtering, writing output starting at Fri Feb 19 10:57:22 2016

Completed after 0.0000000000 seconds.
Finished successfully finished at Fri Feb 19 10:57:22 2016

This process (19548) memory usage: 
------------------------------------------
------------------------------------------

RemoveSubsets:
---------------
Input file:                                  unittest/controlRun/source1/trackletsPurified/59607.tracklets.purified
Output file:                                 unittest/controlRun/source1/trackletsFinal/59607.tracklets.final
RemoveSubsets:                               false
Short-circuit if possible:                   true
Sort sets by size before set intersection:   false
Keep only longest tracklet(s) per detection: false
Reading infile, starting at Fri Feb 19 10:57:22 2016

Finished reading infile at Fri Feb 19 10:57:22 2016

Reading input took 0.0000000000 seconds.
Finished filtering, writing output starting at Fri Feb 19 10:57:22 2016

Completed after 0.0000000000 seconds.
Finished successfully finished at Fri Feb 19 10:57:22 2016

This process (19550) memory usage: 
------------------------------------------
------------------------------------------

RemoveSubsets:
---------------
Input file:                                  unittest/controlRun/source1/trackletsPurified/59608.tracklets.purified
Output file:                                 unittest/controlRun/source1/trackletsFinal/59608.tracklets.final
RemoveSubsets:                               false
Short-circuit if possible:                   true
Sort sets by size before set intersection:   false
Keep only longest tracklet(s) per detection: false
Reading infile, starting at Fri Feb 19 10:57:22 2016

Finished reading infile at Fri Feb 19 10:57:22 2016

Reading input took 0.0000000000 seconds.
Finished filtering, writing output starting at Fri Feb 19 10:57:22 2016

Completed after 0.0000000000 seconds.
Finished successfully finished at Fri Feb 19 10:57:22 2016

This process (19552) memory usage: 
------------------------------------------
------------------------------------------

RemoveSubsets:
---------------
Input file:                                  unittest/controlRun/source1/trackletsPurified/59609.tracklets.purified
Output file:                                 unittest/controlRun/source1/trackletsFinal/59609.tracklets.final
RemoveSubsets:                               false
Short-circuit if possible:                   true
Sort sets by size before set intersection:   false
Keep only longest tracklet(s) per detection: false
Reading infile, starting at Fri Feb 19 10:57:22 2016

Finished reading infile at Fri Feb 19 10:57:22 2016

Reading input took 0.0000000000 seconds.
Finished filtering, writing output starting at Fri Feb 19 10:57:22 2016

Completed after 0.0000000000 seconds.
Finished successfully finished at Fri Feb 19 10:57:22 2016

This process (19554) memory usage: 
------------------------------------------
------------------------------------------

