RemoveSubsets:
---------------
Input file:                                  /Users/joachim/repos/neosim/unittest/controlRun/tracks/night_59580_through_59595.track
Output file:                                 /Users/joachim/repos/neosim/unittest/controlRun/tracksFinal/59580.tracklets.final
RemoveSubsets:                               true
Short-circuit if possible:                   true
Sort sets by size before set intersection:   false
Keep only longest tracklet(s) per detection: true
Reading infile, starting at Thu Feb 11 16:41:10 2016

Finished reading infile at Thu Feb 11 16:41:10 2016

Reading input took 0.0000000000 seconds.
Building detection-to-track map, starting at Thu Feb 11 16:41:10 2016

Finished detection-to-track map, filtering tracks starting at Thu Feb 11 16:41:10 2016

Finished filtering, writing output starting at Thu Feb 11 16:41:10 2016

Completed after 0.0000000000 seconds.
Finished successfully finished at Thu Feb 11 16:41:10 2016

This process (51354) memory usage: 
------------------------------------------
------------------------------------------

RemoveSubsets:
---------------
Input file:                                  /Users/joachim/repos/neosim/unittest/controlRun/tracks/night_59581_through_59596.track
Output file:                                 /Users/joachim/repos/neosim/unittest/controlRun/tracksFinal/59581.tracklets.final
RemoveSubsets:                               true
Short-circuit if possible:                   true
Sort sets by size before set intersection:   false
Keep only longest tracklet(s) per detection: true
Reading infile, starting at Thu Feb 11 16:41:10 2016

Finished reading infile at Thu Feb 11 16:41:10 2016

Reading input took 0.0000000000 seconds.
Building detection-to-track map, starting at Thu Feb 11 16:41:10 2016

Finished detection-to-track map, filtering tracks starting at Thu Feb 11 16:41:10 2016

Finished filtering, writing output starting at Thu Feb 11 16:41:10 2016

Completed after 0.0000000000 seconds.
Finished successfully finished at Thu Feb 11 16:41:10 2016

This process (51356) memory usage: 
------------------------------------------
------------------------------------------

RemoveSubsets:
---------------
Input file:                                  /Users/joachim/repos/neosim/unittest/controlRun/tracks/night_59582_through_59597.track
Output file:                                 /Users/joachim/repos/neosim/unittest/controlRun/tracksFinal/59582.tracklets.final
RemoveSubsets:                               true
Short-circuit if possible:                   true
Sort sets by size before set intersection:   false
Keep only longest tracklet(s) per detection: true
Reading infile, starting at Thu Feb 11 16:41:10 2016

Finished reading infile at Thu Feb 11 16:41:10 2016

Reading input took 0.0000000000 seconds.
Building detection-to-track map, starting at Thu Feb 11 16:41:10 2016

Finished detection-to-track map, filtering tracks starting at Thu Feb 11 16:41:10 2016

Finished filtering, writing output starting at Thu Feb 11 16:41:10 2016

Completed after 0.0000000000 seconds.
Finished successfully finished at Thu Feb 11 16:41:10 2016

This process (51358) memory usage: 
------------------------------------------
------------------------------------------

RemoveSubsets:
---------------
Input file:                                  /Users/joachim/repos/neosim/unittest/controlRun/tracks/night_59583_through_59598.track
Output file:                                 /Users/joachim/repos/neosim/unittest/controlRun/tracksFinal/59583.tracklets.final
RemoveSubsets:                               true
Short-circuit if possible:                   true
Sort sets by size before set intersection:   false
Keep only longest tracklet(s) per detection: true
Reading infile, starting at Thu Feb 11 16:41:10 2016

Finished reading infile at Thu Feb 11 16:41:10 2016

Reading input took 0.0000000000 seconds.
Building detection-to-track map, starting at Thu Feb 11 16:41:10 2016

Finished detection-to-track map, filtering tracks starting at Thu Feb 11 16:41:10 2016

Finished filtering, writing output starting at Thu Feb 11 16:41:10 2016

Completed after 0.0000000000 seconds.
Finished successfully finished at Thu Feb 11 16:41:10 2016

This process (51360) memory usage: 
------------------------------------------
------------------------------------------

RemoveSubsets:
---------------
Input file:                                  /Users/joachim/repos/neosim/unittest/controlRun/tracks/night_59584_through_59599.track
Output file:                                 /Users/joachim/repos/neosim/unittest/controlRun/tracksFinal/59584.tracklets.final
RemoveSubsets:                               true
Short-circuit if possible:                   true
Sort sets by size before set intersection:   false
Keep only longest tracklet(s) per detection: true
Reading infile, starting at Thu Feb 11 16:41:10 2016

Finished reading infile at Thu Feb 11 16:41:10 2016

Reading input took 0.0000000000 seconds.
Building detection-to-track map, starting at Thu Feb 11 16:41:10 2016

Finished detection-to-track map, filtering tracks starting at Thu Feb 11 16:41:10 2016

Finished filtering, writing output starting at Thu Feb 11 16:41:10 2016

Completed after 0.0000000000 seconds.
Finished successfully finished at Thu Feb 11 16:41:10 2016

This process (51362) memory usage: 
------------------------------------------
------------------------------------------

RemoveSubsets:
---------------
Input file:                                  /Users/joachim/repos/neosim/unittest/controlRun/tracks/night_59585_through_59600.track
Output file:                                 /Users/joachim/repos/neosim/unittest/controlRun/tracksFinal/59585.tracklets.final
RemoveSubsets:                               true
Short-circuit if possible:                   true
Sort sets by size before set intersection:   false
Keep only longest tracklet(s) per detection: true
Reading infile, starting at Thu Feb 11 16:41:10 2016

Finished reading infile at Thu Feb 11 16:41:10 2016

Reading input took 0.0000000000 seconds.
Building detection-to-track map, starting at Thu Feb 11 16:41:10 2016

Finished detection-to-track map, filtering tracks starting at Thu Feb 11 16:41:10 2016

Finished filtering, writing output starting at Thu Feb 11 16:41:10 2016

Completed after 0.0000000000 seconds.
Finished successfully finished at Thu Feb 11 16:41:10 2016

This process (51364) memory usage: 
------------------------------------------
------------------------------------------

RemoveSubsets:
---------------
Input file:                                  /Users/joachim/repos/neosim/unittest/controlRun/tracks/night_59586_through_59601.track
Output file:                                 /Users/joachim/repos/neosim/unittest/controlRun/tracksFinal/59586.tracklets.final
RemoveSubsets:                               true
Short-circuit if possible:                   true
Sort sets by size before set intersection:   false
Keep only longest tracklet(s) per detection: true
Reading infile, starting at Thu Feb 11 16:41:10 2016

Finished reading infile at Thu Feb 11 16:41:10 2016

Reading input took 0.0000000000 seconds.
Building detection-to-track map, starting at Thu Feb 11 16:41:10 2016

Finished detection-to-track map, filtering tracks starting at Thu Feb 11 16:41:10 2016

Finished filtering, writing output starting at Thu Feb 11 16:41:10 2016

Completed after 0.0000000000 seconds.
Finished successfully finished at Thu Feb 11 16:41:10 2016

This process (51366) memory usage: 
------------------------------------------
------------------------------------------

RemoveSubsets:
---------------
Input file:                                  /Users/joachim/repos/neosim/unittest/controlRun/tracks/night_59587_through_59602.track
Output file:                                 /Users/joachim/repos/neosim/unittest/controlRun/tracksFinal/59587.tracklets.final
RemoveSubsets:                               true
Short-circuit if possible:                   true
Sort sets by size before set intersection:   false
Keep only longest tracklet(s) per detection: true
Reading infile, starting at Thu Feb 11 16:41:10 2016

Finished reading infile at Thu Feb 11 16:41:10 2016

Reading input took 0.0000000000 seconds.
Building detection-to-track map, starting at Thu Feb 11 16:41:10 2016

Finished detection-to-track map, filtering tracks starting at Thu Feb 11 16:41:10 2016

Finished filtering, writing output starting at Thu Feb 11 16:41:10 2016

Completed after 0.0000000000 seconds.
Finished successfully finished at Thu Feb 11 16:41:10 2016

This process (51368) memory usage: 
------------------------------------------
------------------------------------------

RemoveSubsets:
---------------
Input file:                                  /Users/joachim/repos/neosim/unittest/controlRun/tracks/night_59588_through_59603.track
Output file:                                 /Users/joachim/repos/neosim/unittest/controlRun/tracksFinal/59588.tracklets.final
RemoveSubsets:                               true
Short-circuit if possible:                   true
Sort sets by size before set intersection:   false
Keep only longest tracklet(s) per detection: true
Reading infile, starting at Thu Feb 11 16:41:10 2016

Finished reading infile at Thu Feb 11 16:41:10 2016

Reading input took 0.0000000000 seconds.
Building detection-to-track map, starting at Thu Feb 11 16:41:10 2016

Finished detection-to-track map, filtering tracks starting at Thu Feb 11 16:41:10 2016

Finished filtering, writing output starting at Thu Feb 11 16:41:10 2016

Completed after 0.0000000000 seconds.
Finished successfully finished at Thu Feb 11 16:41:10 2016

This process (51370) memory usage: 
------------------------------------------
------------------------------------------

RemoveSubsets:
---------------
Input file:                                  /Users/joachim/repos/neosim/unittest/controlRun/tracks/night_59589_through_59604.track
Output file:                                 /Users/joachim/repos/neosim/unittest/controlRun/tracksFinal/59589.tracklets.final
RemoveSubsets:                               true
Short-circuit if possible:                   true
Sort sets by size before set intersection:   false
Keep only longest tracklet(s) per detection: true
Reading infile, starting at Thu Feb 11 16:41:10 2016

Finished reading infile at Thu Feb 11 16:41:10 2016

Reading input took 0.0000000000 seconds.
Building detection-to-track map, starting at Thu Feb 11 16:41:10 2016

Finished detection-to-track map, filtering tracks starting at Thu Feb 11 16:41:10 2016

Finished filtering, writing output starting at Thu Feb 11 16:41:10 2016

Completed after 0.0000000000 seconds.
Finished successfully finished at Thu Feb 11 16:41:10 2016

This process (51372) memory usage: 
------------------------------------------
------------------------------------------

RemoveSubsets:
---------------
Input file:                                  /Users/joachim/repos/neosim/unittest/controlRun/tracks/night_59590_through_59605.track
Output file:                                 /Users/joachim/repos/neosim/unittest/controlRun/tracksFinal/59590.tracklets.final
RemoveSubsets:                               true
Short-circuit if possible:                   true
Sort sets by size before set intersection:   false
Keep only longest tracklet(s) per detection: true
Reading infile, starting at Thu Feb 11 16:41:10 2016

Finished reading infile at Thu Feb 11 16:41:10 2016

Reading input took 0.0000000000 seconds.
Building detection-to-track map, starting at Thu Feb 11 16:41:10 2016

Finished detection-to-track map, filtering tracks starting at Thu Feb 11 16:41:10 2016

Finished filtering, writing output starting at Thu Feb 11 16:41:10 2016

Completed after 0.0000000000 seconds.
Finished successfully finished at Thu Feb 11 16:41:10 2016

This process (51374) memory usage: 
------------------------------------------
------------------------------------------

RemoveSubsets:
---------------
Input file:                                  /Users/joachim/repos/neosim/unittest/controlRun/tracks/night_59591_through_59606.track
Output file:                                 /Users/joachim/repos/neosim/unittest/controlRun/tracksFinal/59591.tracklets.final
RemoveSubsets:                               true
Short-circuit if possible:                   true
Sort sets by size before set intersection:   false
Keep only longest tracklet(s) per detection: true
Reading infile, starting at Thu Feb 11 16:41:10 2016

Finished reading infile at Thu Feb 11 16:41:10 2016

Reading input took 0.0000000000 seconds.
Building detection-to-track map, starting at Thu Feb 11 16:41:10 2016

Finished detection-to-track map, filtering tracks starting at Thu Feb 11 16:41:10 2016

Finished filtering, writing output starting at Thu Feb 11 16:41:10 2016

Completed after 0.0000000000 seconds.
Finished successfully finished at Thu Feb 11 16:41:10 2016

This process (51376) memory usage: 
------------------------------------------
------------------------------------------

RemoveSubsets:
---------------
Input file:                                  /Users/joachim/repos/neosim/unittest/controlRun/tracks/night_59592_through_59607.track
Output file:                                 /Users/joachim/repos/neosim/unittest/controlRun/tracksFinal/59592.tracklets.final
RemoveSubsets:                               true
Short-circuit if possible:                   true
Sort sets by size before set intersection:   false
Keep only longest tracklet(s) per detection: true
Reading infile, starting at Thu Feb 11 16:41:10 2016

Finished reading infile at Thu Feb 11 16:41:10 2016

Reading input took 0.0000000000 seconds.
Building detection-to-track map, starting at Thu Feb 11 16:41:10 2016

Finished detection-to-track map, filtering tracks starting at Thu Feb 11 16:41:10 2016

Finished filtering, writing output starting at Thu Feb 11 16:41:10 2016

Completed after 0.0000000000 seconds.
Finished successfully finished at Thu Feb 11 16:41:10 2016

This process (51378) memory usage: 
------------------------------------------
------------------------------------------

RemoveSubsets:
---------------
Input file:                                  /Users/joachim/repos/neosim/unittest/controlRun/tracks/night_59593_through_59608.track
Output file:                                 /Users/joachim/repos/neosim/unittest/controlRun/tracksFinal/59593.tracklets.final
RemoveSubsets:                               true
Short-circuit if possible:                   true
Sort sets by size before set intersection:   false
Keep only longest tracklet(s) per detection: true
Reading infile, starting at Thu Feb 11 16:41:10 2016

Finished reading infile at Thu Feb 11 16:41:10 2016

Reading input took 0.0000000000 seconds.
Building detection-to-track map, starting at Thu Feb 11 16:41:10 2016

Finished detection-to-track map, filtering tracks starting at Thu Feb 11 16:41:10 2016

Finished filtering, writing output starting at Thu Feb 11 16:41:10 2016

Completed after 0.0000000000 seconds.
Finished successfully finished at Thu Feb 11 16:41:10 2016

This process (51380) memory usage: 
------------------------------------------
------------------------------------------

RemoveSubsets:
---------------
Input file:                                  /Users/joachim/repos/neosim/unittest/controlRun/tracks/night_59594_through_59609.track
Output file:                                 /Users/joachim/repos/neosim/unittest/controlRun/tracksFinal/59594.tracklets.final
RemoveSubsets:                               true
Short-circuit if possible:                   true
Sort sets by size before set intersection:   false
Keep only longest tracklet(s) per detection: true
Reading infile, starting at Thu Feb 11 16:41:10 2016

Finished reading infile at Thu Feb 11 16:41:10 2016

Reading input took 0.0000000000 seconds.
Building detection-to-track map, starting at Thu Feb 11 16:41:10 2016

Finished detection-to-track map, filtering tracks starting at Thu Feb 11 16:41:10 2016

Finished filtering, writing output starting at Thu Feb 11 16:41:10 2016

Completed after 0.0000000000 seconds.
Finished successfully finished at Thu Feb 11 16:41:10 2016

This process (51382) memory usage: 
------------------------------------------
------------------------------------------

RemoveSubsets:
---------------
Input file:                                  /Users/joachim/repos/neosim/unittest/controlRun/tracks/night_59595_through_59609.track
Output file:                                 /Users/joachim/repos/neosim/unittest/controlRun/tracksFinal/59595.tracklets.final
RemoveSubsets:                               true
Short-circuit if possible:                   true
Sort sets by size before set intersection:   false
Keep only longest tracklet(s) per detection: true
Reading infile, starting at Thu Feb 11 16:41:10 2016

Finished reading infile at Thu Feb 11 16:41:10 2016

Reading input took 0.0000000000 seconds.
Building detection-to-track map, starting at Thu Feb 11 16:41:10 2016

Finished detection-to-track map, filtering tracks starting at Thu Feb 11 16:41:10 2016

Finished filtering, writing output starting at Thu Feb 11 16:41:10 2016

Completed after 0.0000000000 seconds.
Finished successfully finished at Thu Feb 11 16:41:10 2016

This process (51384) memory usage: 
------------------------------------------
------------------------------------------

RemoveSubsets:
---------------
Input file:                                  /Users/joachim/repos/neosim/unittest/controlRun/tracks/night_59596_through_59609.track
Output file:                                 /Users/joachim/repos/neosim/unittest/controlRun/tracksFinal/59596.tracklets.final
RemoveSubsets:                               true
Short-circuit if possible:                   true
Sort sets by size before set intersection:   false
Keep only longest tracklet(s) per detection: true
Reading infile, starting at Thu Feb 11 16:41:10 2016

Finished reading infile at Thu Feb 11 16:41:10 2016

Reading input took 0.0000000000 seconds.
Building detection-to-track map, starting at Thu Feb 11 16:41:10 2016

Finished detection-to-track map, filtering tracks starting at Thu Feb 11 16:41:10 2016

Finished filtering, writing output starting at Thu Feb 11 16:41:10 2016

Completed after 0.0000000000 seconds.
Finished successfully finished at Thu Feb 11 16:41:10 2016

This process (51386) memory usage: 
------------------------------------------
------------------------------------------

RemoveSubsets:
---------------
Input file:                                  /Users/joachim/repos/neosim/unittest/controlRun/tracks/night_59597_through_59609.track
Output file:                                 /Users/joachim/repos/neosim/unittest/controlRun/tracksFinal/59597.tracklets.final
RemoveSubsets:                               true
Short-circuit if possible:                   true
Sort sets by size before set intersection:   false
Keep only longest tracklet(s) per detection: true
Reading infile, starting at Thu Feb 11 16:41:10 2016

Finished reading infile at Thu Feb 11 16:41:10 2016

Reading input took 0.0000000000 seconds.
Building detection-to-track map, starting at Thu Feb 11 16:41:10 2016

Finished detection-to-track map, filtering tracks starting at Thu Feb 11 16:41:10 2016

Finished filtering, writing output starting at Thu Feb 11 16:41:10 2016

Completed after 0.0000000000 seconds.
Finished successfully finished at Thu Feb 11 16:41:10 2016

This process (51388) memory usage: 
------------------------------------------
------------------------------------------

RemoveSubsets:
---------------
Input file:                                  /Users/joachim/repos/neosim/unittest/controlRun/tracks/night_59598_through_59609.track
Output file:                                 /Users/joachim/repos/neosim/unittest/controlRun/tracksFinal/59598.tracklets.final
RemoveSubsets:                               true
Short-circuit if possible:                   true
Sort sets by size before set intersection:   false
Keep only longest tracklet(s) per detection: true
Reading infile, starting at Thu Feb 11 16:41:10 2016

Finished reading infile at Thu Feb 11 16:41:10 2016

Reading input took 0.0000000000 seconds.
Building detection-to-track map, starting at Thu Feb 11 16:41:10 2016

Finished detection-to-track map, filtering tracks starting at Thu Feb 11 16:41:10 2016

Finished filtering, writing output starting at Thu Feb 11 16:41:10 2016

Completed after 0.0000000000 seconds.
Finished successfully finished at Thu Feb 11 16:41:10 2016

This process (51390) memory usage: 
------------------------------------------
------------------------------------------

RemoveSubsets:
---------------
Input file:                                  /Users/joachim/repos/neosim/unittest/controlRun/tracks/night_59599_through_59609.track
Output file:                                 /Users/joachim/repos/neosim/unittest/controlRun/tracksFinal/59599.tracklets.final
RemoveSubsets:                               true
Short-circuit if possible:                   true
Sort sets by size before set intersection:   false
Keep only longest tracklet(s) per detection: true
Reading infile, starting at Thu Feb 11 16:41:10 2016

Finished reading infile at Thu Feb 11 16:41:10 2016

Reading input took 0.0000000000 seconds.
Building detection-to-track map, starting at Thu Feb 11 16:41:10 2016

Finished detection-to-track map, filtering tracks starting at Thu Feb 11 16:41:10 2016

Finished filtering, writing output starting at Thu Feb 11 16:41:10 2016

Completed after 0.0000000000 seconds.
Finished successfully finished at Thu Feb 11 16:41:10 2016

This process (51392) memory usage: 
------------------------------------------
------------------------------------------

RemoveSubsets:
---------------
Input file:                                  /Users/joachim/repos/neosim/unittest/controlRun/tracks/night_59600_through_59609.track
Output file:                                 /Users/joachim/repos/neosim/unittest/controlRun/tracksFinal/59600.tracklets.final
RemoveSubsets:                               true
Short-circuit if possible:                   true
Sort sets by size before set intersection:   false
Keep only longest tracklet(s) per detection: true
Reading infile, starting at Thu Feb 11 16:41:10 2016

Finished reading infile at Thu Feb 11 16:41:10 2016

Reading input took 0.0000000000 seconds.
Building detection-to-track map, starting at Thu Feb 11 16:41:10 2016

Finished detection-to-track map, filtering tracks starting at Thu Feb 11 16:41:10 2016

Finished filtering, writing output starting at Thu Feb 11 16:41:10 2016

Completed after 0.0000000000 seconds.
Finished successfully finished at Thu Feb 11 16:41:10 2016

This process (51394) memory usage: 
------------------------------------------
------------------------------------------

RemoveSubsets:
---------------
Input file:                                  /Users/joachim/repos/neosim/unittest/controlRun/tracks/night_59601_through_59609.track
Output file:                                 /Users/joachim/repos/neosim/unittest/controlRun/tracksFinal/59601.tracklets.final
RemoveSubsets:                               true
Short-circuit if possible:                   true
Sort sets by size before set intersection:   false
Keep only longest tracklet(s) per detection: true
Reading infile, starting at Thu Feb 11 16:41:10 2016

Finished reading infile at Thu Feb 11 16:41:10 2016

Reading input took 0.0000000000 seconds.
Building detection-to-track map, starting at Thu Feb 11 16:41:10 2016

Finished detection-to-track map, filtering tracks starting at Thu Feb 11 16:41:10 2016

Finished filtering, writing output starting at Thu Feb 11 16:41:10 2016

Completed after 0.0000000000 seconds.
Finished successfully finished at Thu Feb 11 16:41:10 2016

This process (51396) memory usage: 
------------------------------------------
------------------------------------------

RemoveSubsets:
---------------
Input file:                                  /Users/joachim/repos/neosim/unittest/controlRun/tracks/night_59602_through_59609.track
Output file:                                 /Users/joachim/repos/neosim/unittest/controlRun/tracksFinal/59602.tracklets.final
RemoveSubsets:                               true
Short-circuit if possible:                   true
Sort sets by size before set intersection:   false
Keep only longest tracklet(s) per detection: true
Reading infile, starting at Thu Feb 11 16:41:10 2016

Finished reading infile at Thu Feb 11 16:41:10 2016

Reading input took 0.0000000000 seconds.
Building detection-to-track map, starting at Thu Feb 11 16:41:10 2016

Finished detection-to-track map, filtering tracks starting at Thu Feb 11 16:41:10 2016

Finished filtering, writing output starting at Thu Feb 11 16:41:10 2016

Completed after 0.0000000000 seconds.
Finished successfully finished at Thu Feb 11 16:41:10 2016

This process (51398) memory usage: 
------------------------------------------
------------------------------------------

RemoveSubsets:
---------------
Input file:                                  /Users/joachim/repos/neosim/unittest/controlRun/tracks/night_59603_through_59609.track
Output file:                                 /Users/joachim/repos/neosim/unittest/controlRun/tracksFinal/59603.tracklets.final
RemoveSubsets:                               true
Short-circuit if possible:                   true
Sort sets by size before set intersection:   false
Keep only longest tracklet(s) per detection: true
Reading infile, starting at Thu Feb 11 16:41:10 2016

Finished reading infile at Thu Feb 11 16:41:10 2016

Reading input took 0.0000000000 seconds.
Building detection-to-track map, starting at Thu Feb 11 16:41:10 2016

Finished detection-to-track map, filtering tracks starting at Thu Feb 11 16:41:10 2016

Finished filtering, writing output starting at Thu Feb 11 16:41:10 2016

Completed after 0.0000000000 seconds.
Finished successfully finished at Thu Feb 11 16:41:10 2016

This process (51400) memory usage: 
------------------------------------------
------------------------------------------

RemoveSubsets:
---------------
Input file:                                  /Users/joachim/repos/neosim/unittest/controlRun/tracks/night_59604_through_59609.track
Output file:                                 /Users/joachim/repos/neosim/unittest/controlRun/tracksFinal/59604.tracklets.final
RemoveSubsets:                               true
Short-circuit if possible:                   true
Sort sets by size before set intersection:   false
Keep only longest tracklet(s) per detection: true
Reading infile, starting at Thu Feb 11 16:41:10 2016

Finished reading infile at Thu Feb 11 16:41:10 2016

Reading input took 0.0000000000 seconds.
Building detection-to-track map, starting at Thu Feb 11 16:41:10 2016

Finished detection-to-track map, filtering tracks starting at Thu Feb 11 16:41:10 2016

Finished filtering, writing output starting at Thu Feb 11 16:41:10 2016

Completed after 0.0000000000 seconds.
Finished successfully finished at Thu Feb 11 16:41:10 2016

This process (51402) memory usage: 
------------------------------------------
------------------------------------------

RemoveSubsets:
---------------
Input file:                                  /Users/joachim/repos/neosim/unittest/controlRun/tracks/night_59605_through_59609.track
Output file:                                 /Users/joachim/repos/neosim/unittest/controlRun/tracksFinal/59605.tracklets.final
RemoveSubsets:                               true
Short-circuit if possible:                   true
Sort sets by size before set intersection:   false
Keep only longest tracklet(s) per detection: true
Reading infile, starting at Thu Feb 11 16:41:11 2016

Finished reading infile at Thu Feb 11 16:41:11 2016

Reading input took 0.0000000000 seconds.
Building detection-to-track map, starting at Thu Feb 11 16:41:11 2016

Finished detection-to-track map, filtering tracks starting at Thu Feb 11 16:41:11 2016

Finished filtering, writing output starting at Thu Feb 11 16:41:11 2016

Completed after 0.0000000000 seconds.
Finished successfully finished at Thu Feb 11 16:41:11 2016

This process (51404) memory usage: 
------------------------------------------
------------------------------------------

RemoveSubsets:
---------------
Input file:                                  /Users/joachim/repos/neosim/unittest/controlRun/tracks/night_59606_through_59609.track
Output file:                                 /Users/joachim/repos/neosim/unittest/controlRun/tracksFinal/59606.tracklets.final
RemoveSubsets:                               true
Short-circuit if possible:                   true
Sort sets by size before set intersection:   false
Keep only longest tracklet(s) per detection: true
Reading infile, starting at Thu Feb 11 16:41:11 2016

Finished reading infile at Thu Feb 11 16:41:11 2016

Reading input took 0.0000000000 seconds.
Building detection-to-track map, starting at Thu Feb 11 16:41:11 2016

Finished detection-to-track map, filtering tracks starting at Thu Feb 11 16:41:11 2016

Finished filtering, writing output starting at Thu Feb 11 16:41:11 2016

Completed after 0.0000000000 seconds.
Finished successfully finished at Thu Feb 11 16:41:11 2016

This process (51406) memory usage: 
------------------------------------------
------------------------------------------

RemoveSubsets:
---------------
Input file:                                  /Users/joachim/repos/neosim/unittest/controlRun/tracks/night_59607_through_59609.track
Output file:                                 /Users/joachim/repos/neosim/unittest/controlRun/tracksFinal/59607.tracklets.final
RemoveSubsets:                               true
Short-circuit if possible:                   true
Sort sets by size before set intersection:   false
Keep only longest tracklet(s) per detection: true
Reading infile, starting at Thu Feb 11 16:41:11 2016

Finished reading infile at Thu Feb 11 16:41:11 2016

Reading input took 0.0000000000 seconds.
Building detection-to-track map, starting at Thu Feb 11 16:41:11 2016

Finished detection-to-track map, filtering tracks starting at Thu Feb 11 16:41:11 2016

Finished filtering, writing output starting at Thu Feb 11 16:41:11 2016

Completed after 0.0000000000 seconds.
Finished successfully finished at Thu Feb 11 16:41:11 2016

This process (51408) memory usage: 
------------------------------------------
------------------------------------------

